
  EPA STORM WATER MANAGEMENT MODEL - VERSION 5.1 (Build 5.3.0)
  --------------------------------------------------------------

  
  *********************************************************
  NOTE: The summary statistics displayed in this report are
  based on results found at every computational time step,  
  not just on results from each reporting time step.
  *********************************************************
  
  ****************
  Analysis Options
  ****************
  Flow Units ............... CMS
  Process Models:
    Rainfall/Runoff ........ YES
    RDII ................... NO
    Snowmelt ............... NO
    Groundwater ............ NO
    Flow Routing ........... YES
    Ponding Allowed ........ NO
    Water Quality .......... NO
  Infiltration Method ...... MODIFIED_GREEN_AMPT
  Flow Routing Method ...... DYNWAVE
  Surcharge Method ......... EXTRAN
  Starting Date ............ 08/31/2018 11:59:30
  Ending Date .............. 08/31/2018 18:16:00
  Antecedent Dry Days ...... 10.0
  Report Time Step ......... 00:01:00
  Wet Time Step ............ 00:01:00
  Dry Time Step ............ 01:00:00
  Routing Time Step ........ 30.00 sec
  Variable Time Step ....... NO
  Maximum Trials ........... 8
  Number of Threads ........ 1
  Head Tolerance ........... 0.001500 m
  
  
  **************************        Volume         Depth
  Runoff Quantity Continuity     hectare-m            mm
  **************************     ---------       -------
  Total Precipitation ......         0.443        39.600
  Evaporation Loss .........         0.000         0.000
  Infiltration Loss ........         0.193        17.282
  Surface Runoff ...........         0.241        21.503
  Final Storage ............         0.009         0.829
  Continuity Error (%) .....        -0.035
  
  
  **************************        Volume        Volume
  Flow Routing Continuity        hectare-m      10^6 ltr
  **************************     ---------     ---------
  Dry Weather Inflow .......         0.000         0.000
  Wet Weather Inflow .......         0.241         2.406
  Groundwater Inflow .......         0.000         0.000
  RDII Inflow ..............         0.000         0.000
  External Inflow ..........         0.000         0.000
  External Outflow .........         0.240         2.398
  Flooding Loss ............         0.000         0.000
  Evaporation Loss .........         0.000         0.000
  Exfiltration Loss ........         0.000         0.000
  Initial Stored Volume ....         0.000         0.000
  Final Stored Volume ......         0.000         0.003
  Continuity Error (%) .....         0.198
  
  
  ********************************
  Highest Flow Instability Indexes
  ********************************
  Link l7 (4)
  Link l21 (4)
  Link l19 (4)
  Link l3 (3)
  Link l9 (3)
  
  
  *************************
  Routing Time Step Summary
  *************************
  Minimum Time Step           :    30.00 sec
  Average Time Step           :    30.00 sec
  Maximum Time Step           :    30.00 sec
  Percent in Steady State     :     0.00
  Average Iterations per Step :     2.16
  Percent Not Converging      :     0.00
  
  
  ***************************
  Subcatchment Runoff Summary
  ***************************
  
  ------------------------------------------------------------------------------------------------------------------------------
                            Total      Total      Total      Total     Imperv       Perv      Total       Total     Peak  Runoff
                           Precip      Runon       Evap      Infil     Runoff     Runoff     Runoff      Runoff   Runoff   Coeff
  Subcatchment                 mm         mm         mm         mm         mm         mm         mm    10^6 ltr      CMS
  ------------------------------------------------------------------------------------------------------------------------------
  s31                       39.60       0.00       0.00      31.72       7.68       0.00       7.68        0.01     0.01   0.194
  s32                       39.60       0.00       0.00      31.72       7.67       0.00       7.67        0.02     0.02   0.194
  s33                       39.60       0.00       0.00      31.72       7.67       0.00       7.67        0.02     0.02   0.194
  s34                       39.60       0.00       0.00      31.72       7.67       0.00       7.67        0.02     0.02   0.194
  s35                       39.60       0.00       0.00       7.93      30.54       0.00      30.54        0.09     0.06   0.771
  s36                       39.60       0.00       0.00       7.93      30.61       0.00      30.61        0.06     0.04   0.773
  s37                       39.60       0.00       0.00       7.93      30.57       0.00      30.57        0.08     0.05   0.772
  s38                       39.60       0.00       0.00       7.93      30.44       0.00      30.44        0.16     0.08   0.769
  s39                       39.60       0.00       0.00       7.93      30.32       0.00      30.32        0.24     0.12   0.766
  s40                       39.60       0.00       0.00       7.93      30.41       0.00      30.41        0.18     0.09   0.768
  s41                       39.60       0.00       0.00      31.72       7.66       0.00       7.66        0.05     0.04   0.193
  s42                       39.60       0.00       0.00      31.72       7.65       0.00       7.65        0.06     0.05   0.193
  s43                       39.60       0.00       0.00      31.72       7.65       0.00       7.65        0.06     0.05   0.193
  s46                       39.60       0.00       0.00       7.93      30.52       0.00      30.52        0.10     0.06   0.771
  s47                       39.60       0.00       0.00       7.93      30.49       0.00      30.49        0.12     0.07   0.770
  s48                       39.60       0.00       0.00       7.93      30.50       0.00      30.50        0.11     0.07   0.770
  s49                       39.60       0.00       0.00       7.93      30.48       0.00      30.48        0.13     0.07   0.770
  s50                       39.60       0.00       0.00       7.93      30.64       0.00      30.64        0.05     0.03   0.774
  s51                       39.60       0.00       0.00       7.93      30.62       0.00      30.62        0.06     0.04   0.773
  s52                       39.60       0.00       0.00       7.93      30.35       0.00      30.35        0.22     0.11   0.766
  s53                       39.60       0.00       0.00       7.93      30.40       0.00      30.40        0.18     0.09   0.768
  s54                       39.60       0.00       0.00       7.93      30.66       0.00      30.66        0.04     0.03   0.774
  s55                       39.60       0.00       0.00       7.93      30.68       0.00      30.68        0.04     0.03   0.775
  s56                       39.60       0.00       0.00       7.93      30.57       0.00      30.57        0.08     0.05   0.772
  s57                       39.60       0.00       0.00       7.93      30.59       0.00      30.59        0.07     0.04   0.773
  s58                       39.60       0.00       0.00       7.93      30.59       0.00      30.59        0.07     0.04   0.773
  s59                       39.60       0.00       0.00      31.72       7.68       0.00       7.68        0.01     0.01   0.194
  s60                       39.60       0.00       0.00      31.72       7.68       0.00       7.68        0.01     0.01   0.194
  s61                       39.60       0.00       0.00      31.72       7.68       0.00       7.68        0.01     0.01   0.194
  s62                       39.60       0.00       0.00      31.72       7.67       0.00       7.67        0.02     0.02   0.194
  s63                       39.60       0.00       0.00      31.72       7.66       0.00       7.66        0.03     0.03   0.194
  s64                       39.60       0.00       0.00      31.72       7.68       0.00       7.68        0.02     0.01   0.194
  
  
  ******************
  Node Depth Summary
  ******************
  
  ---------------------------------------------------------------------------------
                                 Average  Maximum  Maximum  Time of Max    Reported
                                   Depth    Depth      HGL   Occurrence   Max Depth
  Node                 Type       Meters   Meters   Meters  days hr:min      Meters
  ---------------------------------------------------------------------------------
  j1                   JUNCTION     0.02     0.09    37.39     0  01:46        0.09
  j2                   JUNCTION     0.03     0.15    36.32     0  01:46        0.15
  j3                   JUNCTION     0.04     0.21    35.14     0  01:47        0.21
  j4                   JUNCTION     0.05     0.24    34.40     0  01:47        0.24
  j6                   JUNCTION     0.06     0.32    33.21     0  01:47        0.32
  j7                   JUNCTION     0.06     0.33    32.58     0  01:47        0.33
  j8                   JUNCTION     0.03     0.13    35.35     0  01:48        0.13
  j9                   JUNCTION     0.04     0.17    34.15     0  01:47        0.17
  j10                  JUNCTION     0.02     0.10    37.55     0  01:46        0.10
  j11                  JUNCTION     0.03     0.16    36.66     0  01:46        0.16
  j12                  JUNCTION     0.02     0.10    37.49     0  01:47        0.10
  j13                  JUNCTION     0.02     0.09    35.94     0  01:47        0.09
  j14                  JUNCTION     0.04     0.20    35.13     0  01:47        0.20
  j15                  JUNCTION     0.04     0.22    34.27     0  01:47        0.22
  j16                  JUNCTION     0.04     0.23    33.49     0  01:47        0.23
  j17                  JUNCTION     0.04     0.23    32.79     0  01:47        0.23
  j18                  JUNCTION     0.08     0.44    31.91     0  01:48        0.44
  j19                  JUNCTION     0.08     0.44    31.37     0  01:48        0.44
  j20                  JUNCTION     0.08     0.45    30.78     0  01:48        0.45
  j21                  JUNCTION     0.08     0.44    30.20     0  01:48        0.44
  j22                  JUNCTION     0.09     0.49    29.59     0  01:48        0.49
  j23                  JUNCTION     0.00     0.04    35.12     0  01:46        0.04
  j24                  JUNCTION     0.01     0.06    34.53     0  01:46        0.06
  j25                  JUNCTION     0.01     0.08    33.95     0  01:46        0.08
  j26                  JUNCTION     0.01     0.09    33.27     0  01:46        0.09
  j27                  JUNCTION     0.02     0.12    32.48     0  01:46        0.12
  j28                  JUNCTION     0.02     0.14    31.29     0  01:46        0.14
  j29                  JUNCTION     0.02     0.16    30.24     0  01:46        0.16
  j30                  OUTFALL      0.08     0.43    28.93     0  01:48        0.43
  
  
  *******************
  Node Inflow Summary
  *******************
  
  -------------------------------------------------------------------------------------------------
                                  Maximum  Maximum                  Lateral       Total        Flow
                                  Lateral    Total  Time of Max      Inflow      Inflow     Balance
                                   Inflow   Inflow   Occurrence      Volume      Volume       Error
  Node                 Type           CMS      CMS  days hr:min    10^6 ltr    10^6 ltr     Percent
  -------------------------------------------------------------------------------------------------
  j1                   JUNCTION     0.058    0.058     0  01:46      0.0947      0.0947       0.073
  j2                   JUNCTION     0.125    0.181     0  01:46       0.216       0.311       0.071
  j3                   JUNCTION     0.142    0.323     0  01:47       0.256       0.567       0.099
  j4                   JUNCTION     0.109    0.432     0  01:47       0.219       0.785       0.011
  j6                   JUNCTION     0.062    0.701     0  01:47      0.0918         1.3       0.108
  j7                   JUNCTION     0.054    0.751     0  01:47      0.0773        1.37      -0.025
  j8                   JUNCTION     0.118    0.118     0  01:48       0.243       0.243       0.097
  j9                   JUNCTION     0.093    0.210     0  01:48       0.179       0.422       0.067
  j10                  JUNCTION     0.069    0.069     0  01:46       0.119       0.119       0.098
  j11                  JUNCTION     0.066    0.206     0  01:46       0.113       0.359       0.075
  j12                  JUNCTION     0.072    0.072     0  01:46       0.128       0.128       0.118
  j13                  JUNCTION     0.062    0.062     0  01:46       0.104       0.104       0.073
  j14                  JUNCTION     0.034    0.301     0  01:47       0.049       0.512       0.107
  j15                  JUNCTION     0.038    0.336     0  01:47      0.0551       0.566       0.040
  j16                  JUNCTION     0.031    0.365     0  01:47      0.0429       0.609       0.031
  j17                  JUNCTION     0.027    0.389     0  01:48      0.0368       0.646       0.002
  j18                  JUNCTION     0.044    1.182     0  01:47      0.0673        2.09       0.072
  j19                  JUNCTION     0.009    1.192     0  01:48     0.00998         2.1       0.013
  j20                  JUNCTION     0.019    1.208     0  01:48      0.0207        2.12       0.039
  j21                  JUNCTION     0.014    1.216     0  01:48      0.0153        2.13       0.007
  j22                  JUNCTION     0.030    1.425     0  01:48      0.0345         2.4       0.041
  j23                  JUNCTION     0.009    0.009     0  01:46     0.00922     0.00922       0.024
  j24                  JUNCTION     0.017    0.026     0  01:46      0.0184      0.0276       0.083
  j25                  JUNCTION     0.016    0.042     0  01:46      0.0176      0.0453       0.085
  j26                  JUNCTION     0.022    0.064     0  01:46      0.0245      0.0698       0.077
  j27                  JUNCTION     0.042    0.105     0  01:46       0.049       0.119       0.084
  j28                  JUNCTION     0.049    0.152     0  01:46      0.0582       0.177       0.102
  j29                  JUNCTION     0.048    0.198     0  01:46      0.0574       0.234      -0.010
  j30                  OUTFALL      0.000    1.418     0  01:48           0         2.4       0.000
  
  
  **********************
  Node Surcharge Summary
  **********************
  
  No nodes were surcharged.
  
  
  *********************
  Node Flooding Summary
  *********************
  
  No nodes were flooded.
  
  
  ***********************
  Outfall Loading Summary
  ***********************
  
  -----------------------------------------------------------
                         Flow       Avg       Max       Total
                         Freq      Flow      Flow      Volume
  Outfall Node           Pcnt       CMS       CMS    10^6 ltr
  -----------------------------------------------------------
  j30                   98.27     0.108     1.418       2.398
  -----------------------------------------------------------
  System                98.27     0.108     1.418       2.398
  
  
  ********************
  Link Flow Summary
  ********************
  
  -----------------------------------------------------------------------------
                                 Maximum  Time of Max   Maximum    Max/    Max/
                                  |Flow|   Occurrence   |Veloc|    Full    Full
  Link                 Type          CMS  days hr:min     m/sec    Flow   Depth
  -----------------------------------------------------------------------------
  l1                   CONDUIT     0.058     0  01:46      0.95    0.01    0.10
  l2                   CONDUIT     0.182     0  01:47      1.67    0.04    0.15
  l3                   CONDUIT     0.324     0  01:47      2.23    0.06    0.19
  l6                   CONDUIT     0.117     0  01:48      1.50    0.02    0.12
  l7                   CONDUIT     0.211     0  01:48      1.28    0.04    0.20
  l8                   CONDUIT     0.702     0  01:47      2.84    0.14    0.27
  l9                   CONDUIT     0.751     0  01:47      2.39    0.15    0.32
  l10                  CONDUIT     0.068     0  01:46      1.02    0.01    0.11
  l11                  CONDUIT     0.072     0  01:46      1.07    0.01    0.11
  l12                  CONDUIT     0.208     0  01:47      1.89    0.04    0.15
  l13                  CONDUIT     0.061     0  01:46      0.79    0.01    0.12
  l14                  CONDUIT     0.301     0  01:47      2.28    0.06    0.17
  l15                  CONDUIT     0.337     0  01:47      2.33    0.07    0.19
  l16                  CONDUIT     0.364     0  01:48      2.47    0.07    0.19
  l17                  CONDUIT     0.389     0  01:48      1.52    0.08    0.28
  l18                  CONDUIT     1.185     0  01:48      3.13    0.23    0.37
  l19                  CONDUIT     1.194     0  01:48      3.14    0.23    0.37
  l20                  CONDUIT     1.205     0  01:48      3.17    0.24    0.37
  l21                  CONDUIT     1.220     0  01:48      3.02    0.24    0.39
  l22                  CONDUIT     0.009     0  01:46      0.56    0.00    0.04
  l23                  CONDUIT     0.026     0  01:46      0.99    0.00    0.06
  l24                  CONDUIT     0.042     0  01:46      1.17    0.01    0.07
  l25                  CONDUIT     0.064     0  01:46      1.29    0.01    0.09
  l26                  CONDUIT     0.105     0  01:46      1.57    0.02    0.11
  l27                  CONDUIT     0.152     0  01:46      1.83    0.03    0.13
  l28                  CONDUIT     0.198     0  01:46      0.96    0.04    0.27
  l29                  CONDUIT     1.418     0  01:48      3.56    0.28    0.38
  l30                  CONDUIT     0.432     0  01:47      2.16    0.08    0.23
  
  
  ***************************
  Flow Classification Summary
  ***************************
  
  -------------------------------------------------------------------------------------
                      Adjusted    ---------- Fraction of Time in Flow Class ---------- 
                       /Actual         Up    Down  Sub   Sup   Up    Down  Norm  Inlet 
  Conduit               Length    Dry  Dry   Dry   Crit  Crit  Crit  Crit  Ltd   Ctrl  
  -------------------------------------------------------------------------------------
  l1                      1.00   0.00  0.00  0.00  0.95  0.05  0.00  0.00  0.99  0.00
  l2                      1.00   0.00  0.00  0.00  0.14  0.85  0.00  0.00  1.00  0.00
  l3                      1.00   0.00  0.00  0.00  0.10  0.90  0.00  0.00  0.89  0.00
  l6                      1.00   0.00  0.00  0.00  0.10  0.90  0.00  0.00  0.99  0.00
  l7                      1.00   0.00  0.00  0.00  0.77  0.23  0.00  0.00  0.99  0.00
  l8                      1.00   0.00  0.00  0.00  0.03  0.97  0.00  0.00  0.22  0.00
  l9                      1.00   0.00  0.00  0.00  0.08  0.92  0.00  0.00  0.87  0.00
  l10                     1.00   0.00  0.00  0.00  0.89  0.10  0.00  0.00  0.99  0.00
  l11                     1.00   0.00  0.00  0.00  0.85  0.15  0.00  0.00  0.99  0.00
  l12                     1.00   0.00  0.00  0.00  0.10  0.90  0.00  0.00  0.97  0.00
  l13                     1.00   0.00  0.00  0.00  0.99  0.00  0.00  0.00  0.99  0.00
  l14                     1.00   0.01  0.00  0.00  0.09  0.90  0.00  0.00  0.76  0.00
  l15                     1.00   0.01  0.00  0.00  0.07  0.92  0.00  0.00  0.69  0.00
  l16                     1.00   0.01  0.00  0.00  0.06  0.94  0.00  0.00  0.38  0.00
  l17                     1.00   0.01  0.00  0.00  0.94  0.05  0.00  0.00  0.99  0.00
  l18                     1.00   0.01  0.00  0.00  0.03  0.97  0.00  0.00  0.07  0.00
  l19                     1.00   0.00  0.00  0.00  0.04  0.96  0.00  0.00  0.10  0.00
  l20                     1.00   0.00  0.00  0.00  0.04  0.95  0.00  0.00  0.05  0.00
  l21                     1.00   0.00  0.00  0.00  0.09  0.91  0.00  0.00  0.59  0.00
  l22                     1.00   0.00  0.00  0.00  0.98  0.01  0.00  0.00  0.99  0.00
  l23                     1.00   0.00  0.00  0.00  0.80  0.20  0.00  0.00  0.99  0.00
  l24                     1.00   0.00  0.00  0.00  0.73  0.27  0.00  0.00  0.99  0.00
  l25                     1.00   0.00  0.00  0.00  0.67  0.32  0.00  0.00  0.99  0.00
  l26                     1.00   0.00  0.00  0.00  0.29  0.70  0.00  0.00  0.99  0.00
  l27                     1.00   0.00  0.00  0.00  0.17  0.82  0.00  0.00  0.98  0.00
  l28                     1.00   0.00  0.00  0.00  0.99  0.01  0.00  0.00  0.99  0.00
  l29                     1.00   0.00  0.00  0.00  0.01  0.98  0.00  0.00  0.00  0.00
  l30                     1.00   0.00  0.00  0.00  0.10  0.90  0.00  0.00  0.99  0.00
  
  
  *************************
  Conduit Surcharge Summary
  *************************
  
  No conduits were surcharged.
  

  Analysis begun on:  Wed May  6 00:33:32 2020
  Analysis ended on:  Wed May  6 00:33:32 2020
  Total elapsed time: < 1 sec