
  EPA STORM WATER MANAGEMENT MODEL - VERSION 5.1 (Build 5.3.0.dev0)
  --------------------------------------------------------------

  
  *********************************************************
  NOTE: The summary statistics displayed in this report are
  based on results found at every computational time step,  
  not just on results from each reporting time step.
  *********************************************************
  
  ****************
  Analysis Options
  ****************
  Flow Units ............... CMS
  Process Models:
    Rainfall/Runoff ........ YES
    RDII ................... NO
    Snowmelt ............... NO
    Groundwater ............ NO
    Flow Routing ........... YES
    Ponding Allowed ........ NO
    Water Quality .......... NO
  Infiltration Method ...... MODIFIED_GREEN_AMPT
  Flow Routing Method ...... DYNWAVE
  Surcharge Method ......... EXTRAN
  Starting Date ............ 05/30/2018 18:50:30
  Ending Date .............. 05/30/2018 19:50:30
  Antecedent Dry Days ...... 10.0
  Report Time Step ......... 00:01:00
  Wet Time Step ............ 00:01:00
  Dry Time Step ............ 01:00:00
  Routing Time Step ........ 30.00 sec
  Variable Time Step ....... NO
  Maximum Trials ........... 8
  Number of Threads ........ 1
  Head Tolerance ........... 0.001500 m
  
  
  **************************        Volume         Depth
  Runoff Quantity Continuity     hectare-m            mm
  **************************     ---------       -------
  Total Precipitation ......         0.269        24.000
  Evaporation Loss .........         0.000         0.000
  Infiltration Loss ........         0.145        12.996
  Surface Runoff ...........         0.091         8.109
  Final Storage ............         0.033         2.924
  Continuity Error (%) .....        -0.123
  
  
  **************************        Volume        Volume
  Flow Routing Continuity        hectare-m      10^6 ltr
  **************************     ---------     ---------
  Dry Weather Inflow .......         0.000         0.000
  Wet Weather Inflow .......         0.090         0.902
  Groundwater Inflow .......         0.000         0.000
  RDII Inflow ..............         0.000         0.000
  External Inflow ..........         0.000         0.000
  External Outflow .........         0.150         1.503
  Flooding Loss ............         0.012         0.120
  Evaporation Loss .........         0.000         0.000
  Exfiltration Loss ........         0.000         0.000
  Initial Stored Volume ....         0.010         0.099
  Final Stored Volume ......         0.003         0.030
  Continuity Error (%) .....       -65.274
  
  
  *************************
  Highest Continuity Errors
  *************************
  Node j2 (-44.40%)
  Node j4 (-16.44%)
  Node j3 (-15.35%)
  Node j6 (-12.52%)
  Node j20 (-12.39%)
  
  
  ********************************
  Highest Flow Instability Indexes
  ********************************
  Link l21 (23)
  Link l20 (11)
  Link l7 (10)
  Link l29 (10)
  Link l19 (9)
  
  
  *************************
  Routing Time Step Summary
  *************************
  Minimum Time Step           :    30.00 sec
  Average Time Step           :    30.00 sec
  Maximum Time Step           :    30.00 sec
  Percent in Steady State     :     0.00
  Average Iterations per Step :     2.83
  Percent Not Converging      :     5.00
  
  
  ***************************
  Subcatchment Runoff Summary
  ***************************
  
  ------------------------------------------------------------------------------------------------------------------------------
                            Total      Total      Total      Total     Imperv       Perv      Total       Total     Peak  Runoff
                           Precip      Runon       Evap      Infil     Runoff     Runoff     Runoff      Runoff   Runoff   Coeff
  Subcatchment                 mm         mm         mm         mm         mm         mm         mm    10^6 ltr      CMS
  ------------------------------------------------------------------------------------------------------------------------------
  s31                       24.00       0.00       0.00      22.80       1.19       0.00       1.19        0.00     0.00   0.050
  s32                       24.00       0.00       0.00      22.80       1.19       0.00       1.19        0.00     0.00   0.049
  s33                       24.00       0.00       0.00      22.80       1.19       0.00       1.19        0.00     0.00   0.049
  s34                       24.00       0.00       0.00      22.80       1.18       0.00       1.18        0.00     0.01   0.049
  s35                       24.00       0.00       0.00       6.00      13.72       0.00      13.72        0.04     0.02   0.571
  s36                       24.00       0.00       0.00       6.00      14.50       0.00      14.50        0.03     0.02   0.604
  s37                       24.00       0.00       0.00      22.80       1.19       0.00       1.19        0.00     0.00   0.049
  s38                       24.00       0.00       0.00       6.00      12.70       0.00      12.70        0.06     0.03   0.529
  s39                       24.00       0.00       0.00       6.00      11.69       0.00      11.69        0.09     0.04   0.487
  s40                       24.00       0.00       0.00       6.00      12.42       0.00      12.42        0.07     0.04   0.518
  s41                       24.00       0.00       0.00      22.80       1.18       0.00       1.18        0.01     0.01   0.049
  s42                       24.00       0.00       0.00      22.80       1.18       0.00       1.18        0.01     0.01   0.049
  s43                       24.00       0.00       0.00      22.80       1.18       0.00       1.18        0.01     0.01   0.049
  s46                       24.00       0.00       0.00       6.00      13.54       0.00      13.54        0.05     0.03   0.564
  s47                       24.00       0.00       0.00       6.00      13.26       0.00      13.26        0.05     0.03   0.553
  s48                       24.00       0.00       0.00       6.00      13.37       0.00      13.37        0.05     0.03   0.557
  s49                       24.00       0.00       0.00       6.00      13.11       0.00      13.11        0.06     0.03   0.546
  s50                       24.00       0.00       0.00       6.00      14.86       0.00      14.86        0.02     0.02   0.619
  s51                       24.00       0.00       0.00       6.00      14.67       0.00      14.67        0.03     0.02   0.611
  s52                       24.00       0.00       0.00       6.00      11.93       0.00      11.93        0.09     0.04   0.497
  s53                       24.00       0.00       0.00       6.00      12.38       0.00      12.38        0.07     0.04   0.516
  s54                       24.00       0.00       0.00       6.00      15.06       0.00      15.06        0.02     0.01   0.628
  s55                       24.00       0.00       0.00       6.00      15.28       0.00      15.28        0.02     0.01   0.637
  s56                       24.00       0.00       0.00       6.00      14.04       0.00      14.04        0.04     0.02   0.585
  s57                       24.00       0.00       0.00       6.00      14.34       0.00      14.34        0.03     0.02   0.597
  s58                       24.00       0.00       0.00       6.00      14.34       0.00      14.34        0.03     0.02   0.597
  s59                       24.00       0.00       0.00      22.80       1.19       0.00       1.19        0.00     0.00   0.050
  s60                       24.00       0.00       0.00      22.80       1.19       0.00       1.19        0.00     0.00   0.050
  s61                       24.00       0.00       0.00      22.80       1.19       0.00       1.19        0.00     0.00   0.050
  s62                       24.00       0.00       0.00      22.80       1.19       0.00       1.19        0.00     0.00   0.049
  s63                       24.00       0.00       0.00      22.80       1.18       0.00       1.18        0.01     0.01   0.049
  s64                       24.00       0.00       0.00      22.80       1.19       0.00       1.19        0.00     0.00   0.050
  
  
  ******************
  Node Depth Summary
  ******************
  
  ---------------------------------------------------------------------------------
                                 Average  Maximum  Maximum  Time of Max    Reported
                                   Depth    Depth      HGL   Occurrence   Max Depth
  Node                 Type       Meters   Meters   Meters  days hr:min      Meters
  ---------------------------------------------------------------------------------
  j1                   JUNCTION     0.05     0.94    38.24     0  00:00        0.06
  j2                   JUNCTION     0.08     1.20    37.37     0  00:00        0.57
  j3                   JUNCTION     0.11     1.54    36.47     0  00:00        0.97
  j4                   JUNCTION     0.13     1.56    35.72     0  00:00        1.16
  j6                   JUNCTION     0.17     1.46    34.35     0  00:00        1.45
  j7                   JUNCTION     0.17     1.47    33.72     0  00:00        1.46
  j8                   JUNCTION     0.06     0.08    35.30     0  00:14        0.08
  j9                   JUNCTION     0.09     0.52    34.50     0  00:01        0.52
  j10                  JUNCTION     0.04     0.06    37.51     0  00:12        0.06
  j11                  JUNCTION     0.07     0.11    36.61     0  00:12        0.11
  j12                  JUNCTION     0.05     0.07    37.46     0  00:12        0.07
  j13                  JUNCTION     0.04     0.06    35.91     0  00:12        0.06
  j14                  JUNCTION     0.09     0.13    35.06     0  00:13        0.13
  j15                  JUNCTION     0.09     0.14    34.19     0  00:13        0.14
  j16                  JUNCTION     0.10     0.15    33.41     0  00:13        0.15
  j17                  JUNCTION     0.11     0.64    33.20     0  00:01        0.64
  j18                  JUNCTION     0.22     1.57    33.04     0  00:01        1.56
  j19                  JUNCTION     0.23     1.53    32.46     0  00:00        1.46
  j20                  JUNCTION     0.23     1.72    32.05     0  00:00        1.48
  j21                  JUNCTION     0.24     2.20    31.96     0  00:00        1.75
  j22                  JUNCTION     0.22     1.20    30.30     0  00:01        1.20
  j23                  JUNCTION     0.01     0.02    35.10     0  00:09        0.02
  j24                  JUNCTION     0.01     0.03    34.50     0  00:09        0.03
  j25                  JUNCTION     0.01     0.04    33.91     0  00:09        0.04
  j26                  JUNCTION     0.02     0.05    33.23     0  00:09        0.05
  j27                  JUNCTION     0.02     0.06    32.42     0  00:10        0.06
  j28                  JUNCTION     0.03     0.07    31.22     0  00:10        0.07
  j29                  JUNCTION     0.04     0.35    30.43     0  00:01        0.23
  j30                  OUTFALL      0.20     0.89    29.39     0  00:02        0.89
  
  
  *******************
  Node Inflow Summary
  *******************
  
  -------------------------------------------------------------------------------------------------
                                  Maximum  Maximum                  Lateral       Total        Flow
                                  Lateral    Total  Time of Max      Inflow      Inflow     Balance
                                   Inflow   Inflow   Occurrence      Volume      Volume       Error
  Node                 Type           CMS      CMS  days hr:min    10^6 ltr    10^6 ltr     Percent
  -------------------------------------------------------------------------------------------------
  j1                   JUNCTION     0.024    0.024     0  00:12      0.0423      0.0423     -56.846
  j2                   JUNCTION     0.052    1.866     0  00:00      0.0932       0.191     -30.748
  j3                   JUNCTION     0.039    2.563     0  00:00      0.0746       0.351     -13.310
  j4                   JUNCTION     0.041    3.451     0  00:01      0.0852        0.49     -14.117
  j6                   JUNCTION     0.024    3.857     0  00:01      0.0382       0.798     -11.127
  j7                   JUNCTION     0.021    3.681     0  00:01      0.0329       0.897      -4.369
  j8                   JUNCTION     0.044    0.044     0  00:14      0.0927      0.0927       0.620
  j9                   JUNCTION     0.036    0.914     0  00:00      0.0725       0.199       4.817
  j10                  JUNCTION     0.028    0.028     0  00:12      0.0514      0.0514       0.672
  j11                  JUNCTION     0.027    0.085     0  00:12      0.0491       0.155       1.005
  j12                  JUNCTION     0.030    0.030     0  00:12      0.0547      0.0547       0.652
  j13                  JUNCTION     0.026    0.026     0  00:12      0.0457      0.0457       0.689
  j14                  JUNCTION     0.016    0.126     0  00:12      0.0237       0.222       0.932
  j15                  JUNCTION     0.017    0.142     0  00:13      0.0263       0.246       0.437
  j16                  JUNCTION     0.014    0.156     0  00:13       0.021       0.267       0.322
  j17                  JUNCTION     0.013    0.815     0  00:00      0.0183       0.309       0.322
  j18                  JUNCTION     0.020    3.887     0  00:01      0.0314        1.28      -6.053
  j19                  JUNCTION     0.003    4.022     0  00:01     0.00155        1.34      -6.293
  j20                  JUNCTION     0.005    4.126     0  00:01      0.0032        1.43     -11.028
  j21                  JUNCTION     0.004    8.030     0  00:00     0.00238        1.61       5.883
  j22                  JUNCTION     0.008    4.572     0  00:02     0.00532        1.45      -4.452
  j23                  JUNCTION     0.002    0.002     0  00:08     0.00143     0.00143       0.461
  j24                  JUNCTION     0.004    0.006     0  00:08     0.00285     0.00427       0.479
  j25                  JUNCTION     0.004    0.011     0  00:09     0.00273     0.00699       0.473
  j26                  JUNCTION     0.006    0.016     0  00:09     0.00379      0.0107       0.491
  j27                  JUNCTION     0.010    0.027     0  00:10     0.00754      0.0182       0.547
  j28                  JUNCTION     0.012    0.039     0  00:10     0.00893      0.0271       0.530
  j29                  JUNCTION     0.012    0.588     0  00:01     0.00881      0.0534       7.042
  j30                  OUTFALL      0.000    4.628     0  00:02           0         1.5       0.000
  
  
  **********************
  Node Surcharge Summary
  **********************
  
  Surcharging occurs when water rises above the top of the highest conduit.
  ---------------------------------------------------------------------
                                               Max. Height   Min. Depth
                                   Hours       Above Crown    Below Rim
  Node                 Type      Surcharged         Meters       Meters
  ---------------------------------------------------------------------
  j2                   JUNCTION        0.01          0.000        1.000
  j3                   JUNCTION        0.01          0.339        0.661
  j4                   JUNCTION        0.01          0.360        0.640
  j6                   JUNCTION        0.03          0.256        0.744
  j7                   JUNCTION        0.03          0.270        0.730
  j18                  JUNCTION        0.03          0.370        0.630
  j19                  JUNCTION        0.03          0.327        0.673
  j20                  JUNCTION        0.03          0.524        0.476
  j21                  JUNCTION        0.03          1.000        0.000
  j22                  JUNCTION        0.01          0.000        1.000
  
  
  *********************
  Node Flooding Summary
  *********************
  
  Flooding refers to all water that overflows a node, whether it ponds or not.
  --------------------------------------------------------------------------
                                                             Total   Maximum
                                 Maximum   Time of Max       Flood    Ponded
                        Hours       Rate    Occurrence      Volume     Depth
  Node                 Flooded       CMS   days hr:min    10^6 ltr    Meters
  --------------------------------------------------------------------------
  j21                     0.01     4.015      0  00:00       0.120     0.000
  
  
  ***********************
  Outfall Loading Summary
  ***********************
  
  -----------------------------------------------------------
                         Flow       Avg       Max       Total
                         Freq      Flow      Flow      Volume
  Outfall Node           Pcnt       CMS       CMS    10^6 ltr
  -----------------------------------------------------------
  j30                   98.33     0.425     4.628       1.503
  -----------------------------------------------------------
  System                98.33     0.425     4.628       1.503
  
  
  ********************
  Link Flow Summary
  ********************
  
  -----------------------------------------------------------------------------
                                 Maximum  Time of Max   Maximum    Max/    Max/
                                  |Flow|   Occurrence   |Veloc|    Full    Full
  Link                 Type          CMS  days hr:min     m/sec    Flow   Depth
  -----------------------------------------------------------------------------
  l1                   CONDUIT     1.866     0  00:00      1.94    0.37    0.79
  l2                   CONDUIT     2.563     0  00:00      2.82    0.50    1.00
  l3                   CONDUIT     3.450     0  00:01      3.24    0.68    1.00
  l6                   CONDUIT     0.044     0  00:14      1.11    0.01    0.22
  l7                   CONDUIT     0.914     0  00:00      1.27    0.18    0.72
  l8                   CONDUIT     3.681     0  00:01      3.25    0.72    1.00
  l9                   CONDUIT     3.740     0  00:01      3.31    0.73    1.00
  l10                  CONDUIT     0.028     0  00:12      0.78    0.01    0.07
  l11                  CONDUIT     0.029     0  00:12      0.81    0.01    0.07
  l12                  CONDUIT     0.085     0  00:13      1.46    0.02    0.10
  l13                  CONDUIT     0.026     0  00:12      0.62    0.01    0.08
  l14                  CONDUIT     0.126     0  00:13      1.79    0.02    0.11
  l15                  CONDUIT     0.142     0  00:13      1.85    0.03    0.12
  l16                  CONDUIT     0.156     0  00:13      1.94    0.03    0.29
  l17                  CONDUIT     0.815     0  00:00      1.31    0.16    0.77
  l18                  CONDUIT     4.022     0  00:01      3.56    0.78    1.00
  l19                  CONDUIT     4.125     0  00:01      3.65    0.81    1.00
  l20                  CONDUIT     8.030     0  00:00     14.20    1.57    1.00
  l21                  CONDUIT     4.396     0  00:01      4.82    0.86    1.00
  l22                  CONDUIT     0.002     0  00:09      0.37    0.00    0.02
  l23                  CONDUIT     0.007     0  00:09      0.65    0.00    0.03
  l24                  CONDUIT     0.011     0  00:09      0.77    0.00    0.04
  l25                  CONDUIT     0.016     0  00:09      0.85    0.00    0.05
  l26                  CONDUIT     0.027     0  00:10      1.04    0.01    0.06
  l27                  CONDUIT     0.039     0  00:10      1.21    0.01    0.15
  l28                  CONDUIT     0.588     0  00:01      0.94    0.12    0.64
  l29                  CONDUIT     4.628     0  00:02      4.58    0.90    0.86
  l30                  CONDUIT     3.857     0  00:01      3.42    0.75    1.00
  
  
  ***************************
  Flow Classification Summary
  ***************************
  
  -------------------------------------------------------------------------------------
                      Adjusted    ---------- Fraction of Time in Flow Class ---------- 
                       /Actual         Up    Down  Sub   Sup   Up    Down  Norm  Inlet 
  Conduit               Length    Dry  Dry   Dry   Crit  Crit  Crit  Crit  Ltd   Ctrl  
  -------------------------------------------------------------------------------------
  l1                      1.00   0.00  0.01  0.00  0.82  0.17  0.00  0.00  0.98  0.00
  l2                      1.00   0.01  0.00  0.00  0.05  0.94  0.00  0.00  0.97  0.00
  l3                      1.00   0.00  0.01  0.00  0.05  0.94  0.00  0.00  0.90  0.00
  l6                      1.00   0.00  0.01  0.00  0.05  0.94  0.00  0.00  0.97  0.00
  l7                      1.00   0.00  0.01  0.00  0.19  0.80  0.00  0.00  0.97  0.00
  l8                      1.00   0.01  0.00  0.00  0.06  0.93  0.00  0.00  0.08  0.00
  l9                      1.00   0.00  0.01  0.00  0.07  0.93  0.00  0.00  0.89  0.00
  l10                     1.00   0.01  0.00  0.00  0.63  0.36  0.00  0.00  0.99  0.00
  l11                     1.00   0.01  0.00  0.00  0.17  0.82  0.00  0.00  0.99  0.00
  l12                     1.00   0.01  0.00  0.00  0.07  0.93  0.00  0.00  0.99  0.00
  l13                     1.00   0.01  0.00  0.00  0.99  0.00  0.00  0.00  0.99  0.00
  l14                     1.00   0.01  0.00  0.00  0.07  0.92  0.00  0.00  0.18  0.00
  l15                     1.00   0.00  0.01  0.00  0.07  0.92  0.00  0.00  0.17  0.00
  l16                     1.00   0.00  0.00  0.00  0.03  0.97  0.00  0.00  0.16  0.00
  l17                     1.00   0.00  0.01  0.00  0.30  0.69  0.00  0.00  0.96  0.00
  l18                     1.00   0.00  0.01  0.00  0.06  0.93  0.00  0.00  0.03  0.00
  l19                     1.00   0.01  0.00  0.00  0.06  0.93  0.00  0.00  0.05  0.00
  l20                     1.00   0.01  0.00  0.00  0.08  0.91  0.00  0.00  0.07  0.00
  l21                     1.00   0.01  0.01  0.00  0.07  0.92  0.00  0.00  0.07  0.00
  l22                     1.00   0.01  0.00  0.00  0.99  0.00  0.00  0.00  0.99  0.00
  l23                     1.00   0.01  0.00  0.00  0.58  0.41  0.00  0.00  0.99  0.00
  l24                     1.00   0.01  0.00  0.00  0.41  0.58  0.00  0.00  0.99  0.00
  l25                     1.00   0.01  0.00  0.00  0.33  0.66  0.00  0.00  0.99  0.00
  l26                     1.00   0.01  0.00  0.00  0.14  0.85  0.00  0.00  0.99  0.00
  l27                     1.00   0.01  0.00  0.00  0.05  0.94  0.00  0.00  0.97  0.00
  l28                     1.00   0.01  0.00  0.00  0.93  0.07  0.00  0.00  0.93  0.00
  l29                     1.00   0.02  0.00  0.00  0.00  0.98  0.00  0.00  0.00  0.00
  l30                     1.00   0.00  0.01  0.00  0.06  0.93  0.00  0.00  0.97  0.00
  
  
  *************************
  Conduit Surcharge Summary
  *************************
  
  ----------------------------------------------------------------------------
                                                           Hours        Hours 
                         --------- Hours Full --------   Above Full   Capacity
  Conduit                Both Ends  Upstream  Dnstream   Normal Flow   Limited
  ----------------------------------------------------------------------------
  l1                          0.01      0.01      0.01      0.01         0.01
  l2                          0.01      0.01      0.01      0.01         0.01
  l3                          0.01      0.01      0.01      0.01         0.01
  l7                          0.01      0.01      0.02      0.01         0.01
  l8                          0.02      0.02      0.03      0.01         0.01
  l9                          0.03      0.03      0.03      0.01         0.01
  l17                         0.01      0.01      0.03      0.01         0.01
  l18                         0.03      0.03      0.03      0.01         0.03
  l19                         0.03      0.03      0.03      0.01         0.02
  l20                         0.03      0.03      0.03      0.01         0.02
  l21                         0.01      0.03      0.01      0.01         0.01
  l28                         0.01      0.01      0.01      0.01         0.01
  l29                         0.01      0.01      0.01      0.01         0.01
  l30                         0.01      0.01      0.03      0.01         0.01
  

  Analysis begun on:  Thu May 28 19:50:16 2020
  Analysis ended on:  Thu May 28 19:50:16 2020
  Total elapsed time: < 1 sec