
  EPA STORM WATER MANAGEMENT MODEL - VERSION 5.1 (Build 5.3.0)
  --------------------------------------------------------------

  
  *********************************************************
  NOTE: The summary statistics displayed in this report are
  based on results found at every computational time step,  
  not just on results from each reporting time step.
  *********************************************************
  
  ****************
  Analysis Options
  ****************
  Flow Units ............... CMS
  Process Models:
    Rainfall/Runoff ........ YES
    RDII ................... NO
    Snowmelt ............... NO
    Groundwater ............ NO
    Flow Routing ........... YES
    Ponding Allowed ........ NO
    Water Quality .......... NO
  Infiltration Method ...... MODIFIED_GREEN_AMPT
  Flow Routing Method ...... DYNWAVE
  Surcharge Method ......... EXTRAN
  Starting Date ............ 06/22/2018 07:30:30
  Ending Date .............. 06/22/2018 10:35:00
  Antecedent Dry Days ...... 10.0
  Report Time Step ......... 00:01:00
  Wet Time Step ............ 00:01:00
  Dry Time Step ............ 01:00:00
  Routing Time Step ........ 30.00 sec
  Variable Time Step ....... NO
  Maximum Trials ........... 8
  Number of Threads ........ 1
  Head Tolerance ........... 0.001500 m
  
  
  **************************        Volume         Depth
  Runoff Quantity Continuity     hectare-m            mm
  **************************     ---------       -------
  Total Precipitation ......         0.311        27.800
  Evaporation Loss .........         0.000         0.000
  Infiltration Loss ........         0.136        12.133
  Surface Runoff ...........         0.166        14.825
  Final Storage ............         0.010         0.850
  Continuity Error (%) .....        -0.029
  
  
  **************************        Volume        Volume
  Flow Routing Continuity        hectare-m      10^6 ltr
  **************************     ---------     ---------
  Dry Weather Inflow .......         0.000         0.000
  Wet Weather Inflow .......         0.166         1.659
  Groundwater Inflow .......         0.000         0.000
  RDII Inflow ..............         0.000         0.000
  External Inflow ..........         0.000         0.000
  External Outflow .........         0.165         1.653
  Flooding Loss ............         0.000         0.000
  Evaporation Loss .........         0.000         0.000
  Exfiltration Loss ........         0.000         0.000
  Initial Stored Volume ....         0.000         0.000
  Final Stored Volume ......         0.000         0.004
  Continuity Error (%) .....         0.112
  
  
  ********************************
  Highest Flow Instability Indexes
  ********************************
  Link l9 (4)
  Link l20 (4)
  Link l21 (4)
  Link l8 (3)
  Link l1 (3)
  
  
  *************************
  Routing Time Step Summary
  *************************
  Minimum Time Step           :    29.00 sec
  Average Time Step           :    30.00 sec
  Maximum Time Step           :    30.00 sec
  Percent in Steady State     :     0.00
  Average Iterations per Step :     2.22
  Percent Not Converging      :     0.00
  
  
  ***************************
  Subcatchment Runoff Summary
  ***************************
  
  ------------------------------------------------------------------------------------------------------------------------------
                            Total      Total      Total      Total     Imperv       Perv      Total       Total     Peak  Runoff
                           Precip      Runon       Evap      Infil     Runoff     Runoff     Runoff      Runoff   Runoff   Coeff
  Subcatchment                 mm         mm         mm         mm         mm         mm         mm    10^6 ltr      CMS
  ------------------------------------------------------------------------------------------------------------------------------
  s31                       27.80       0.00       0.00      22.27       5.33       0.00       5.33        0.01     0.01   0.192
  s32                       27.80       0.00       0.00      22.27       5.32       0.00       5.32        0.01     0.01   0.192
  s33                       27.80       0.00       0.00      22.27       5.33       0.00       5.33        0.01     0.01   0.192
  s34                       27.80       0.00       0.00      22.27       5.32       0.00       5.32        0.02     0.01   0.191
  s35                       27.80       0.00       0.00       5.56      21.09       0.00      21.09        0.07     0.04   0.758
  s36                       27.80       0.00       0.00       5.56      21.18       0.00      21.18        0.04     0.02   0.762
  s37                       27.80       0.00       0.00       5.56      21.13       0.00      21.13        0.05     0.03   0.760
  s38                       27.80       0.00       0.00       5.56      20.94       0.00      20.94        0.11     0.06   0.753
  s39                       27.80       0.00       0.00       5.56      20.77       0.00      20.77        0.17     0.09   0.747
  s40                       27.80       0.00       0.00       5.56      20.90       0.00      20.90        0.12     0.07   0.752
  s41                       27.80       0.00       0.00      22.27       5.31       0.00       5.31        0.03     0.02   0.191
  s42                       27.80       0.00       0.00      22.27       5.31       0.00       5.31        0.04     0.03   0.191
  s43                       27.80       0.00       0.00      22.27       5.31       0.00       5.31        0.04     0.03   0.191
  s46                       27.80       0.00       0.00       5.56      21.06       0.00      21.06        0.07     0.04   0.758
  s47                       27.80       0.00       0.00       5.56      21.03       0.00      21.03        0.08     0.05   0.756
  s48                       27.80       0.00       0.00       5.56      21.04       0.00      21.04        0.08     0.04   0.757
  s49                       27.80       0.00       0.00       5.56      21.00       0.00      21.00        0.09     0.05   0.756
  s50                       27.80       0.00       0.00       5.56      21.22       0.00      21.22        0.03     0.02   0.763
  s51                       27.80       0.00       0.00       5.56      21.20       0.00      21.20        0.04     0.02   0.762
  s52                       27.80       0.00       0.00       5.56      20.81       0.00      20.81        0.15     0.08   0.749
  s53                       27.80       0.00       0.00       5.56      20.89       0.00      20.89        0.12     0.07   0.751
  s54                       27.80       0.00       0.00       5.56      21.24       0.00      21.24        0.03     0.02   0.764
  s55                       27.80       0.00       0.00       5.56      21.26       0.00      21.26        0.03     0.02   0.765
  s56                       27.80       0.00       0.00       5.56      21.13       0.00      21.13        0.05     0.03   0.760
  s57                       27.80       0.00       0.00       5.56      21.16       0.00      21.16        0.05     0.03   0.761
  s58                       27.80       0.00       0.00       5.56      21.16       0.00      21.16        0.05     0.03   0.761
  s59                       27.80       0.00       0.00      22.27       5.33       0.00       5.33        0.01     0.01   0.192
  s60                       27.80       0.00       0.00      22.27       5.33       0.00       5.33        0.01     0.01   0.192
  s61                       27.80       0.00       0.00      22.27       5.33       0.00       5.33        0.01     0.01   0.192
  s62                       27.80       0.00       0.00      22.27       5.32       0.00       5.32        0.01     0.01   0.192
  s63                       27.80       0.00       0.00      22.27       5.32       0.00       5.32        0.02     0.02   0.191
  s64                       27.80       0.00       0.00      22.27       5.33       0.00       5.33        0.01     0.01   0.192
  
  
  ******************
  Node Depth Summary
  ******************
  
  ---------------------------------------------------------------------------------
                                 Average  Maximum  Maximum  Time of Max    Reported
                                   Depth    Depth      HGL   Occurrence   Max Depth
  Node                 Type       Meters   Meters   Meters  days hr:min      Meters
  ---------------------------------------------------------------------------------
  j1                   JUNCTION     0.02     0.07    37.37     0  00:46        0.07
  j2                   JUNCTION     0.04     0.13    36.30     0  00:46        0.13
  j3                   JUNCTION     0.05     0.17    35.10     0  00:47        0.17
  j4                   JUNCTION     0.06     0.20    34.36     0  00:47        0.20
  j6                   JUNCTION     0.08     0.26    33.15     0  00:47        0.26
  j7                   JUNCTION     0.08     0.27    32.52     0  00:47        0.27
  j8                   JUNCTION     0.04     0.11    35.33     0  00:46        0.11
  j9                   JUNCTION     0.05     0.14    34.12     0  00:46        0.14
  j10                  JUNCTION     0.02     0.08    37.53     0  00:46        0.08
  j11                  JUNCTION     0.04     0.14    36.64     0  00:47        0.14
  j12                  JUNCTION     0.02     0.08    37.47     0  00:46        0.08
  j13                  JUNCTION     0.02     0.08    35.93     0  00:46        0.08
  j14                  JUNCTION     0.05     0.16    35.09     0  00:47        0.16
  j15                  JUNCTION     0.05     0.17    34.22     0  00:47        0.17
  j16                  JUNCTION     0.05     0.18    33.44     0  00:47        0.18
  j17                  JUNCTION     0.05     0.18    32.74     0  00:48        0.18
  j18                  JUNCTION     0.10     0.35    31.82     0  00:47        0.35
  j19                  JUNCTION     0.10     0.35    31.28     0  00:47        0.35
  j20                  JUNCTION     0.10     0.35    30.68     0  00:48        0.35
  j21                  JUNCTION     0.10     0.35    30.11     0  00:48        0.35
  j22                  JUNCTION     0.11     0.38    29.48     0  00:48        0.38
  j23                  JUNCTION     0.00     0.03    35.11     0  00:32        0.03
  j24                  JUNCTION     0.01     0.05    34.52     0  00:32        0.05
  j25                  JUNCTION     0.01     0.06    33.93     0  00:32        0.06
  j26                  JUNCTION     0.01     0.07    33.25     0  00:32        0.07
  j27                  JUNCTION     0.02     0.09    32.45     0  00:32        0.09
  j28                  JUNCTION     0.02     0.11    31.26     0  00:33        0.11
  j29                  JUNCTION     0.03     0.13    30.21     0  00:33        0.13
  j30                  OUTFALL      0.10     0.34    28.84     0  00:48        0.34
  
  
  *******************
  Node Inflow Summary
  *******************
  
  -------------------------------------------------------------------------------------------------
                                  Maximum  Maximum                  Lateral       Total        Flow
                                  Lateral    Total  Time of Max      Inflow      Inflow     Balance
                                   Inflow   Inflow   Occurrence      Volume      Volume       Error
  Node                 Type           CMS      CMS  days hr:min    10^6 ltr    10^6 ltr     Percent
  -------------------------------------------------------------------------------------------------
  j1                   JUNCTION     0.037    0.037     0  00:46      0.0654      0.0654       0.051
  j2                   JUNCTION     0.083    0.120     0  00:46       0.149       0.214       0.062
  j3                   JUNCTION     0.097    0.216     0  00:46       0.176        0.39       0.058
  j4                   JUNCTION     0.079    0.295     0  00:47        0.15        0.54       0.022
  j6                   JUNCTION     0.037    0.485     0  00:47      0.0634       0.892       0.094
  j7                   JUNCTION     0.031    0.515     0  00:47      0.0535       0.945      -0.009
  j8                   JUNCTION     0.087    0.087     0  00:46       0.166       0.166       0.052
  j9                   JUNCTION     0.066    0.153     0  00:46       0.123       0.289       0.081
  j10                  JUNCTION     0.046    0.046     0  00:46       0.082       0.082       0.045
  j11                  JUNCTION     0.044    0.138     0  00:46      0.0778       0.248       0.100
  j12                  JUNCTION     0.049    0.049     0  00:46      0.0882      0.0882       0.022
  j13                  JUNCTION     0.040    0.040     0  00:46      0.0716      0.0716       0.042
  j14                  JUNCTION     0.020    0.198     0  00:47      0.0339       0.353       0.118
  j15                  JUNCTION     0.022    0.219     0  00:47      0.0382       0.391       0.045
  j16                  JUNCTION     0.018    0.236     0  00:47      0.0297       0.421       0.024
  j17                  JUNCTION     0.015    0.250     0  00:47      0.0255       0.446       0.015
  j18                  JUNCTION     0.027    0.791     0  00:47      0.0465        1.44       0.097
  j19                  JUNCTION     0.006    0.794     0  00:48     0.00693        1.44      -0.003
  j20                  JUNCTION     0.011    0.803     0  00:48      0.0144        1.46       0.048
  j21                  JUNCTION     0.009    0.810     0  00:48      0.0107        1.47       0.004
  j22                  JUNCTION     0.018    0.913     0  00:48      0.0239        1.65       0.059
  j23                  JUNCTION     0.005    0.005     0  00:32      0.0064      0.0064      -0.096
  j24                  JUNCTION     0.010    0.016     0  00:32      0.0128      0.0192      -0.024
  j25                  JUNCTION     0.010    0.025     0  00:32      0.0122      0.0314       0.007
  j26                  JUNCTION     0.013    0.038     0  00:32       0.017      0.0485       0.009
  j27                  JUNCTION     0.024    0.062     0  00:32       0.034      0.0825       0.021
  j28                  JUNCTION     0.028    0.089     0  00:33      0.0404       0.123       0.039
  j29                  JUNCTION     0.027    0.117     0  00:33      0.0398       0.163      -0.127
  j30                  OUTFALL      0.000    0.912     0  00:48           0        1.65       0.000
  
  
  **********************
  Node Surcharge Summary
  **********************
  
  No nodes were surcharged.
  
  
  *********************
  Node Flooding Summary
  *********************
  
  No nodes were flooded.
  
  
  ***********************
  Outfall Loading Summary
  ***********************
  
  -----------------------------------------------------------
                         Flow       Avg       Max       Total
                         Freq      Flow      Flow      Volume
  Outfall Node           Pcnt       CMS       CMS    10^6 ltr
  -----------------------------------------------------------
  j30                   94.85     0.157     0.912       1.653
  -----------------------------------------------------------
  System                94.85     0.157     0.912       1.653
  
  
  ********************
  Link Flow Summary
  ********************
  
  -----------------------------------------------------------------------------
                                 Maximum  Time of Max   Maximum    Max/    Max/
                                  |Flow|   Occurrence   |Veloc|    Full    Full
  Link                 Type          CMS  days hr:min     m/sec    Flow   Depth
  -----------------------------------------------------------------------------
  l1                   CONDUIT     0.037     0  00:46      0.83    0.01    0.08
  l2                   CONDUIT     0.120     0  00:47      1.49    0.02    0.12
  l3                   CONDUIT     0.216     0  00:47      1.98    0.04    0.15
  l6                   CONDUIT     0.087     0  00:46      1.38    0.02    0.10
  l7                   CONDUIT     0.154     0  00:47      1.21    0.03    0.17
  l8                   CONDUIT     0.485     0  00:47      2.62    0.09    0.22
  l9                   CONDUIT     0.516     0  00:47      2.24    0.10    0.26
  l10                  CONDUIT     0.046     0  00:46      0.91    0.01    0.09
  l11                  CONDUIT     0.049     0  00:46      0.95    0.01    0.09
  l12                  CONDUIT     0.138     0  00:47      1.70    0.03    0.12
  l13                  CONDUIT     0.040     0  00:46      0.70    0.01    0.10
  l14                  CONDUIT     0.197     0  00:47      2.04    0.04    0.14
  l15                  CONDUIT     0.219     0  00:47      2.09    0.04    0.15
  l16                  CONDUIT     0.236     0  00:47      2.19    0.05    0.15
  l17                  CONDUIT     0.251     0  00:48      1.35    0.05    0.22
  l18                  CONDUIT     0.791     0  00:48      2.89    0.15    0.29
  l19                  CONDUIT     0.796     0  00:48      2.89    0.16    0.29
  l20                  CONDUIT     0.805     0  00:48      2.92    0.16    0.29
  l21                  CONDUIT     0.807     0  00:48      2.80    0.16    0.30
  l22                  CONDUIT     0.005     0  00:32      0.48    0.00    0.03
  l23                  CONDUIT     0.015     0  00:32      0.84    0.00    0.05
  l24                  CONDUIT     0.025     0  00:32      1.00    0.00    0.06
  l25                  CONDUIT     0.038     0  00:32      1.11    0.01    0.07
  l26                  CONDUIT     0.062     0  00:33      1.35    0.01    0.08
  l27                  CONDUIT     0.090     0  00:33      1.57    0.02    0.10
  l28                  CONDUIT     0.117     0  00:33      0.85    0.02    0.20
  l29                  CONDUIT     0.912     0  00:48      3.19    0.18    0.30
  l30                  CONDUIT     0.296     0  00:47      1.95    0.06    0.19
  
  
  ***************************
  Flow Classification Summary
  ***************************
  
  -------------------------------------------------------------------------------------
                      Adjusted    ---------- Fraction of Time in Flow Class ---------- 
                       /Actual         Up    Down  Sub   Sup   Up    Down  Norm  Inlet 
  Conduit               Length    Dry  Dry   Dry   Crit  Crit  Crit  Crit  Ltd   Ctrl  
  -------------------------------------------------------------------------------------
  l1                      1.00   0.01  0.00  0.00  0.89  0.10  0.00  0.00  0.99  0.00
  l2                      1.00   0.01  0.00  0.00  0.20  0.79  0.00  0.00  0.99  0.00
  l3                      1.00   0.01  0.00  0.00  0.09  0.90  0.00  0.00  0.82  0.00
  l6                      1.00   0.01  0.00  0.00  0.10  0.89  0.00  0.00  0.99  0.00
  l7                      1.00   0.01  0.00  0.00  0.59  0.40  0.00  0.00  0.99  0.00
  l8                      1.00   0.01  0.00  0.00  0.07  0.92  0.00  0.00  0.09  0.00
  l9                      1.00   0.01  0.00  0.00  0.09  0.90  0.00  0.00  0.79  0.00
  l10                     1.00   0.01  0.00  0.00  0.84  0.15  0.00  0.00  0.99  0.00
  l11                     1.00   0.01  0.00  0.00  0.75  0.25  0.00  0.00  0.99  0.00
  l12                     1.00   0.01  0.00  0.00  0.09  0.90  0.00  0.00  0.95  0.00
  l13                     1.00   0.01  0.00  0.00  0.99  0.00  0.00  0.00  0.98  0.00
  l14                     1.00   0.01  0.00  0.00  0.09  0.90  0.00  0.00  0.56  0.00
  l15                     1.00   0.01  0.00  0.00  0.09  0.90  0.00  0.00  0.38  0.00
  l16                     1.00   0.01  0.00  0.00  0.09  0.89  0.00  0.00  0.12  0.00
  l17                     1.00   0.01  0.00  0.00  0.88  0.11  0.00  0.00  0.99  0.00
  l18                     1.00   0.01  0.00  0.00  0.07  0.92  0.00  0.00  0.08  0.00
  l19                     1.00   0.01  0.00  0.00  0.09  0.89  0.00  0.00  0.10  0.00
  l20                     1.00   0.01  0.00  0.00  0.10  0.89  0.00  0.00  0.07  0.00
  l21                     1.00   0.01  0.00  0.00  0.11  0.88  0.00  0.00  0.14  0.00
  l22                     1.00   0.01  0.00  0.00  0.98  0.01  0.00  0.00  0.99  0.00
  l23                     1.00   0.01  0.00  0.00  0.75  0.25  0.00  0.00  0.99  0.00
  l24                     1.00   0.01  0.00  0.00  0.70  0.29  0.00  0.00  0.99  0.00
  l25                     1.00   0.01  0.00  0.00  0.71  0.28  0.00  0.00  0.99  0.00
  l26                     1.00   0.01  0.00  0.00  0.59  0.40  0.00  0.00  0.99  0.00
  l27                     1.00   0.01  0.00  0.00  0.44  0.55  0.00  0.00  0.98  0.00
  l28                     1.00   0.01  0.00  0.00  0.98  0.02  0.00  0.00  0.96  0.00
  l29                     1.00   0.01  0.00  0.00  0.03  0.96  0.00  0.00  0.00  0.00
  l30                     1.00   0.01  0.00  0.00  0.09  0.90  0.00  0.00  0.99  0.00
  
  
  *************************
  Conduit Surcharge Summary
  *************************
  
  No conduits were surcharged.
  

  Analysis begun on:  Wed May  6 00:13:48 2020
  Analysis ended on:  Wed May  6 00:13:48 2020
  Total elapsed time: < 1 sec