
  EPA STORM WATER MANAGEMENT MODEL - VERSION 5.1 (Build 5.3.0)
  --------------------------------------------------------------

  
  *********************************************************
  NOTE: The summary statistics displayed in this report are
  based on results found at every computational time step,  
  not just on results from each reporting time step.
  *********************************************************
  
  ****************
  Analysis Options
  ****************
  Flow Units ............... CMS
  Process Models:
    Rainfall/Runoff ........ YES
    RDII ................... NO
    Snowmelt ............... NO
    Groundwater ............ NO
    Flow Routing ........... YES
    Ponding Allowed ........ NO
    Water Quality .......... NO
  Infiltration Method ...... MODIFIED_GREEN_AMPT
  Flow Routing Method ...... DYNWAVE
  Surcharge Method ......... EXTRAN
  Starting Date ............ 07/24/2018 10:00:30
  Ending Date .............. 07/24/2018 11:33:00
  Antecedent Dry Days ...... 10.0
  Report Time Step ......... 00:01:00
  Wet Time Step ............ 00:01:00
  Dry Time Step ............ 01:00:00
  Routing Time Step ........ 30.00 sec
  Variable Time Step ....... NO
  Maximum Trials ........... 8
  Number of Threads ........ 1
  Head Tolerance ........... 0.001500 m
  
  
  **************************        Volume         Depth
  Runoff Quantity Continuity     hectare-m            mm
  **************************     ---------       -------
  Total Precipitation ......         0.184        16.400
  Evaporation Loss .........         0.000         0.000
  Infiltration Loss ........         0.080         7.157
  Surface Runoff ...........         0.089         7.967
  Final Storage ............         0.014         1.288
  Continuity Error (%) .....        -0.074
  
  
  **************************        Volume        Volume
  Flow Routing Continuity        hectare-m      10^6 ltr
  **************************     ---------     ---------
  Dry Weather Inflow .......         0.000         0.000
  Wet Weather Inflow .......         0.089         0.890
  Groundwater Inflow .......         0.000         0.000
  RDII Inflow ..............         0.000         0.000
  External Inflow ..........         0.000         0.000
  External Outflow .........         0.088         0.876
  Flooding Loss ............         0.000         0.000
  Evaporation Loss .........         0.000         0.000
  Exfiltration Loss ........         0.000         0.000
  Initial Stored Volume ....         0.000         0.000
  Final Stored Volume ......         0.001         0.012
  Continuity Error (%) .....         0.261
  
  
  ********************************
  Highest Flow Instability Indexes
  ********************************
  Link l21 (9)
  Link l20 (7)
  Link l6 (7)
  Link l11 (6)
  Link l29 (6)
  
  
  *************************
  Routing Time Step Summary
  *************************
  Minimum Time Step           :    29.00 sec
  Average Time Step           :    29.99 sec
  Maximum Time Step           :    30.00 sec
  Percent in Steady State     :     0.00
  Average Iterations per Step :     2.26
  Percent Not Converging      :     0.00
  
  
  ***************************
  Subcatchment Runoff Summary
  ***************************
  
  ------------------------------------------------------------------------------------------------------------------------------
                            Total      Total      Total      Total     Imperv       Perv      Total       Total     Peak  Runoff
                           Precip      Runon       Evap      Infil     Runoff     Runoff     Runoff      Runoff   Runoff   Coeff
  Subcatchment                 mm         mm         mm         mm         mm         mm         mm    10^6 ltr      CMS
  ------------------------------------------------------------------------------------------------------------------------------
  s31                       16.40       0.00       0.00      13.14       3.04       0.00       3.04        0.00     0.00   0.186
  s32                       16.40       0.00       0.00      13.14       3.03       0.00       3.03        0.01     0.01   0.185
  s33                       16.40       0.00       0.00      13.14       3.03       0.00       3.03        0.01     0.01   0.185
  s34                       16.40       0.00       0.00      13.14       3.02       0.00       3.02        0.01     0.01   0.184
  s35                       16.40       0.00       0.00       3.28      11.38       0.00      11.38        0.04     0.02   0.694
  s36                       16.40       0.00       0.00       3.28      11.59       0.00      11.59        0.02     0.02   0.707
  s37                       16.40       0.00       0.00       3.28      11.47       0.00      11.47        0.03     0.02   0.699
  s38                       16.40       0.00       0.00       3.28      11.08       0.00      11.08        0.06     0.03   0.675
  s39                       16.40       0.00       0.00       3.28      10.74       0.00      10.74        0.09     0.04   0.655
  s40                       16.40       0.00       0.00       3.28      10.99       0.00      10.99        0.06     0.03   0.670
  s41                       16.40       0.00       0.00      13.14       3.00       0.00       3.00        0.02     0.02   0.183
  s42                       16.40       0.00       0.00      13.14       2.99       0.00       2.99        0.02     0.02   0.182
  s43                       16.40       0.00       0.00      13.14       2.99       0.00       2.99        0.02     0.02   0.182
  s46                       16.40       0.00       0.00       3.28      11.33       0.00      11.33        0.04     0.02   0.691
  s47                       16.40       0.00       0.00       3.28      11.25       0.00      11.25        0.04     0.03   0.686
  s48                       16.40       0.00       0.00       3.28      11.28       0.00      11.28        0.04     0.03   0.688
  s49                       16.40       0.00       0.00       3.28      11.20       0.00      11.20        0.05     0.03   0.683
  s50                       16.40       0.00       0.00       3.28      11.68       0.00      11.68        0.02     0.01   0.712
  s51                       16.40       0.00       0.00       3.28      11.63       0.00      11.63        0.02     0.01   0.709
  s52                       16.40       0.00       0.00       3.28      10.82       0.00      10.82        0.08     0.04   0.660
  s53                       16.40       0.00       0.00       3.28      10.98       0.00      10.98        0.06     0.04   0.669
  s54                       16.40       0.00       0.00       3.28      11.73       0.00      11.73        0.02     0.01   0.715
  s55                       16.40       0.00       0.00       3.28      11.78       0.00      11.78        0.01     0.01   0.718
  s56                       16.40       0.00       0.00       3.28      11.47       0.00      11.47        0.03     0.02   0.699
  s57                       16.40       0.00       0.00       3.28      11.55       0.00      11.55        0.03     0.02   0.704
  s58                       16.40       0.00       0.00       3.28      11.55       0.00      11.55        0.03     0.02   0.704
  s59                       16.40       0.00       0.00      13.14       3.04       0.00       3.04        0.00     0.01   0.185
  s60                       16.40       0.00       0.00      13.14       3.04       0.00       3.04        0.00     0.00   0.186
  s61                       16.40       0.00       0.00      13.14       3.04       0.00       3.04        0.00     0.00   0.186
  s62                       16.40       0.00       0.00      13.14       3.03       0.00       3.03        0.01     0.01   0.185
  s63                       16.40       0.00       0.00      13.14       3.01       0.00       3.01        0.01     0.01   0.184
  s64                       16.40       0.00       0.00      13.14       3.03       0.00       3.03        0.01     0.01   0.185
  
  
  ******************
  Node Depth Summary
  ******************
  
  ---------------------------------------------------------------------------------
                                 Average  Maximum  Maximum  Time of Max    Reported
                                   Depth    Depth      HGL   Occurrence   Max Depth
  Node                 Type       Meters   Meters   Meters  days hr:min      Meters
  ---------------------------------------------------------------------------------
  j1                   JUNCTION     0.03     0.06    37.36     0  00:17        0.06
  j2                   JUNCTION     0.05     0.10    36.27     0  00:17        0.10
  j3                   JUNCTION     0.06     0.13    35.06     0  00:17        0.13
  j4                   JUNCTION     0.08     0.15    34.31     0  00:17        0.15
  j6                   JUNCTION     0.10     0.19    33.08     0  00:18        0.19
  j7                   JUNCTION     0.10     0.19    32.44     0  00:18        0.19
  j8                   JUNCTION     0.04     0.08    35.30     0  00:17        0.08
  j9                   JUNCTION     0.06     0.10    34.08     0  00:18        0.10
  j10                  JUNCTION     0.03     0.06    37.51     0  00:17        0.06
  j11                  JUNCTION     0.05     0.10    36.60     0  00:17        0.10
  j12                  JUNCTION     0.03     0.06    37.45     0  00:17        0.06
  j13                  JUNCTION     0.03     0.06    35.91     0  00:17        0.06
  j14                  JUNCTION     0.06     0.13    35.06     0  00:18        0.13
  j15                  JUNCTION     0.06     0.13    34.18     0  00:17        0.13
  j16                  JUNCTION     0.07     0.14    33.40     0  00:17        0.14
  j17                  JUNCTION     0.07     0.14    32.70     0  00:17        0.14
  j18                  JUNCTION     0.12     0.26    31.73     0  00:18        0.26
  j19                  JUNCTION     0.12     0.26    31.19     0  00:18        0.26
  j20                  JUNCTION     0.12     0.26    30.59     0  00:17        0.26
  j21                  JUNCTION     0.12     0.26    30.02     0  00:17        0.26
  j22                  JUNCTION     0.13     0.29    29.39     0  00:18        0.29
  j23                  JUNCTION     0.01     0.03    35.11     0  00:12        0.03
  j24                  JUNCTION     0.01     0.04    34.51     0  00:15        0.04
  j25                  JUNCTION     0.02     0.05    33.92     0  00:15        0.05
  j26                  JUNCTION     0.02     0.07    33.25     0  00:15        0.07
  j27                  JUNCTION     0.03     0.08    32.44     0  00:15        0.08
  j28                  JUNCTION     0.03     0.10    31.25     0  00:15        0.10
  j29                  JUNCTION     0.04     0.11    30.19     0  00:15        0.11
  j30                  OUTFALL      0.13     0.27    28.77     0  00:18        0.27
  
  
  *******************
  Node Inflow Summary
  *******************
  
  -------------------------------------------------------------------------------------------------
                                  Maximum  Maximum                  Lateral       Total        Flow
                                  Lateral    Total  Time of Max      Inflow      Inflow     Balance
                                   Inflow   Inflow   Occurrence      Volume      Volume       Error
  Node                 Type           CMS      CMS  days hr:min    10^6 ltr    10^6 ltr     Percent
  -------------------------------------------------------------------------------------------------
  j1                   JUNCTION     0.022    0.022     0  00:17      0.0352      0.0352       0.433
  j2                   JUNCTION     0.048    0.070     0  00:17      0.0795       0.115       0.341
  j3                   JUNCTION     0.054    0.124     0  00:17      0.0934       0.208       0.278
  j4                   JUNCTION     0.040    0.164     0  00:17      0.0777       0.285       0.205
  j6                   JUNCTION     0.025    0.266     0  00:18      0.0346       0.468       0.324
  j7                   JUNCTION     0.022    0.285     0  00:18      0.0293       0.496       0.094
  j8                   JUNCTION     0.043    0.043     0  00:17      0.0857      0.0857       0.350
  j9                   JUNCTION     0.035    0.079     0  00:17      0.0646        0.15       0.353
  j10                  JUNCTION     0.026    0.026     0  00:17      0.0438      0.0438       0.406
  j11                  JUNCTION     0.025    0.079     0  00:17      0.0417       0.132       0.417
  j12                  JUNCTION     0.028    0.028     0  00:17       0.047       0.047       0.400
  j13                  JUNCTION     0.024    0.024     0  00:17      0.0385      0.0385       0.404
  j14                  JUNCTION     0.014    0.116     0  00:17      0.0187       0.188       0.465
  j15                  JUNCTION     0.015    0.130     0  00:17      0.0209       0.209       0.211
  j16                  JUNCTION     0.012    0.141     0  00:17      0.0164       0.224       0.187
  j17                  JUNCTION     0.011    0.152     0  00:17      0.0141       0.238       0.139
  j18                  JUNCTION     0.017    0.454     0  00:18      0.0254       0.759       0.259
  j19                  JUNCTION     0.005    0.457     0  00:18     0.00395       0.761       0.076
  j20                  JUNCTION     0.009    0.463     0  00:18     0.00817       0.768       0.167
  j21                  JUNCTION     0.007    0.467     0  00:18     0.00607       0.773       0.048
  j22                  JUNCTION     0.014    0.560     0  00:18      0.0135       0.878       0.200
  j23                  JUNCTION     0.004    0.004     0  00:12     0.00365     0.00365       0.182
  j24                  JUNCTION     0.008    0.012     0  00:15     0.00727      0.0109       0.236
  j25                  JUNCTION     0.008    0.020     0  00:15     0.00697      0.0179       0.213
  j26                  JUNCTION     0.010    0.030     0  00:15     0.00967      0.0275       0.206
  j27                  JUNCTION     0.019    0.048     0  00:15      0.0192      0.0466       0.228
  j28                  JUNCTION     0.021    0.069     0  00:15      0.0227      0.0692       0.239
  j29                  JUNCTION     0.021    0.089     0  00:15      0.0224      0.0914      -0.037
  j30                  OUTFALL      0.000    0.561     0  00:18           0       0.876       0.000
  
  
  **********************
  Node Surcharge Summary
  **********************
  
  No nodes were surcharged.
  
  
  *********************
  Node Flooding Summary
  *********************
  
  No nodes were flooded.
  
  
  ***********************
  Outfall Loading Summary
  ***********************
  
  -----------------------------------------------------------
                         Flow       Avg       Max       Total
                         Freq      Flow      Flow      Volume
  Outfall Node           Pcnt       CMS       CMS    10^6 ltr
  -----------------------------------------------------------
  j30                   95.68     0.165     0.561       0.876
  -----------------------------------------------------------
  System                95.68     0.165     0.561       0.876
  
  
  ********************
  Link Flow Summary
  ********************
  
  -----------------------------------------------------------------------------
                                 Maximum  Time of Max   Maximum    Max/    Max/
                                  |Flow|   Occurrence   |Veloc|    Full    Full
  Link                 Type          CMS  days hr:min     m/sec    Flow   Depth
  -----------------------------------------------------------------------------
  l1                   CONDUIT     0.022     0  00:17      0.72    0.00    0.06
  l2                   CONDUIT     0.070     0  00:17      1.28    0.01    0.09
  l3                   CONDUIT     0.124     0  00:17      1.70    0.02    0.12
  l6                   CONDUIT     0.043     0  00:17      1.11    0.01    0.08
  l7                   CONDUIT     0.079     0  00:18      0.98    0.02    0.12
  l8                   CONDUIT     0.266     0  00:18      2.25    0.05    0.16
  l9                   CONDUIT     0.285     0  00:18      1.93    0.06    0.19
  l10                  CONDUIT     0.026     0  00:17      0.77    0.01    0.07
  l11                  CONDUIT     0.028     0  00:17      0.80    0.01    0.07
  l12                  CONDUIT     0.079     0  00:18      1.43    0.02    0.10
  l13                  CONDUIT     0.024     0  00:17      0.60    0.00    0.08
  l14                  CONDUIT     0.116     0  00:18      1.75    0.02    0.11
  l15                  CONDUIT     0.130     0  00:18      1.81    0.03    0.11
  l16                  CONDUIT     0.142     0  00:17      1.89    0.03    0.12
  l17                  CONDUIT     0.152     0  00:18      1.22    0.03    0.17
  l18                  CONDUIT     0.455     0  00:18      2.54    0.09    0.22
  l19                  CONDUIT     0.458     0  00:18      2.54    0.09    0.22
  l20                  CONDUIT     0.462     0  00:18      2.58    0.09    0.22
  l21                  CONDUIT     0.469     0  00:18      2.44    0.09    0.23
  l22                  CONDUIT     0.004     0  00:15      0.45    0.00    0.03
  l23                  CONDUIT     0.012     0  00:15      0.79    0.00    0.04
  l24                  CONDUIT     0.020     0  00:15      0.93    0.00    0.05
  l25                  CONDUIT     0.030     0  00:15      1.04    0.01    0.06
  l26                  CONDUIT     0.048     0  00:15      1.25    0.01    0.07
  l27                  CONDUIT     0.069     0  00:16      1.45    0.01    0.09
  l28                  CONDUIT     0.089     0  00:16      0.96    0.02    0.16
  l29                  CONDUIT     0.561     0  00:18      2.82    0.11    0.23
  l30                  CONDUIT     0.165     0  00:18      1.67    0.03    0.14
  
  
  ***************************
  Flow Classification Summary
  ***************************
  
  -------------------------------------------------------------------------------------
                      Adjusted    ---------- Fraction of Time in Flow Class ---------- 
                       /Actual         Up    Down  Sub   Sup   Up    Down  Norm  Inlet 
  Conduit               Length    Dry  Dry   Dry   Crit  Crit  Crit  Crit  Ltd   Ctrl  
  -------------------------------------------------------------------------------------
  l1                      1.00   0.02  0.01  0.00  0.92  0.05  0.00  0.00  0.97  0.00
  l2                      1.00   0.02  0.00  0.00  0.08  0.90  0.00  0.00  0.97  0.00
  l3                      1.00   0.02  0.00  0.00  0.05  0.92  0.00  0.00  0.88  0.00
  l6                      1.00   0.02  0.00  0.00  0.07  0.91  0.00  0.00  0.97  0.00
  l7                      1.00   0.02  0.00  0.00  0.38  0.60  0.00  0.00  0.97  0.00
  l8                      1.00   0.02  0.00  0.00  0.07  0.91  0.00  0.00  0.10  0.00
  l9                      1.00   0.02  0.00  0.00  0.06  0.92  0.00  0.00  0.89  0.00
  l10                     1.00   0.02  0.00  0.00  0.85  0.13  0.00  0.00  0.97  0.00
  l11                     1.00   0.02  0.00  0.00  0.56  0.42  0.00  0.00  0.97  0.00
  l12                     1.00   0.02  0.00  0.00  0.06  0.92  0.00  0.00  0.97  0.00
  l13                     1.00   0.03  0.00  0.00  0.97  0.00  0.00  0.00  0.97  0.00
  l14                     1.00   0.03  0.00  0.00  0.07  0.90  0.00  0.00  0.34  0.00
  l15                     1.00   0.03  0.00  0.00  0.07  0.90  0.00  0.00  0.17  0.00
  l16                     1.00   0.03  0.00  0.00  0.07  0.90  0.00  0.00  0.12  0.00
  l17                     1.00   0.03  0.00  0.00  0.74  0.24  0.00  0.00  0.97  0.00
  l18                     1.00   0.03  0.00  0.00  0.05  0.92  0.00  0.00  0.09  0.00
  l19                     1.00   0.03  0.00  0.00  0.07  0.90  0.00  0.00  0.09  0.00
  l20                     1.00   0.03  0.00  0.00  0.08  0.90  0.00  0.00  0.09  0.00
  l21                     1.00   0.02  0.01  0.00  0.09  0.89  0.00  0.00  0.09  0.00
  l22                     1.00   0.03  0.00  0.00  0.97  0.00  0.00  0.00  0.97  0.00
  l23                     1.00   0.03  0.00  0.00  0.43  0.55  0.00  0.00  0.97  0.00
  l24                     1.00   0.03  0.00  0.00  0.34  0.63  0.00  0.00  0.97  0.00
  l25                     1.00   0.02  0.01  0.00  0.34  0.63  0.00  0.00  0.97  0.00
  l26                     1.00   0.02  0.00  0.00  0.13  0.85  0.00  0.00  0.97  0.00
  l27                     1.00   0.02  0.00  0.00  0.08  0.90  0.00  0.00  0.97  0.00
  l28                     1.00   0.02  0.00  0.00  0.95  0.03  0.00  0.00  0.97  0.00
  l29                     1.00   0.02  0.00  0.00  0.05  0.93  0.00  0.00  0.00  0.00
  l30                     1.00   0.02  0.00  0.00  0.06  0.91  0.00  0.00  0.97  0.00
  
  
  *************************
  Conduit Surcharge Summary
  *************************
  
  No conduits were surcharged.
  

  Analysis begun on:  Wed May  6 00:24:35 2020
  Analysis ended on:  Wed May  6 00:24:35 2020
  Total elapsed time: < 1 sec