
  EPA STORM WATER MANAGEMENT MODEL - VERSION 5.1 (Build 5.3.0)
  --------------------------------------------------------------

  
  *********************************************************
  NOTE: The summary statistics displayed in this report are
  based on results found at every computational time step,  
  not just on results from each reporting time step.
  *********************************************************
  
  ****************
  Analysis Options
  ****************
  Flow Units ............... CMS
  Process Models:
    Rainfall/Runoff ........ YES
    RDII ................... NO
    Snowmelt ............... NO
    Groundwater ............ NO
    Flow Routing ........... YES
    Ponding Allowed ........ NO
    Water Quality .......... NO
  Infiltration Method ...... MODIFIED_GREEN_AMPT
  Flow Routing Method ...... DYNWAVE
  Surcharge Method ......... EXTRAN
  Starting Date ............ 07/13/2018 16:02:30
  Ending Date .............. 07/13/2018 16:55:00
  Antecedent Dry Days ...... 10.0
  Report Time Step ......... 00:01:00
  Wet Time Step ............ 00:01:00
  Dry Time Step ............ 01:00:00
  Routing Time Step ........ 30.00 sec
  Variable Time Step ....... NO
  Maximum Trials ........... 8
  Number of Threads ........ 1
  Head Tolerance ........... 0.001500 m
  
  
  **************************        Volume         Depth
  Runoff Quantity Continuity     hectare-m            mm
  **************************     ---------       -------
  Total Precipitation ......         0.094         8.400
  Evaporation Loss .........         0.000         0.000
  Infiltration Loss ........         0.041         3.666
  Surface Runoff ...........         0.037         3.292
  Final Storage ............         0.016         1.457
  Continuity Error (%) .....        -0.176
  
  
  **************************        Volume        Volume
  Flow Routing Continuity        hectare-m      10^6 ltr
  **************************     ---------     ---------
  Dry Weather Inflow .......         0.000         0.000
  Wet Weather Inflow .......         0.037         0.366
  Groundwater Inflow .......         0.000         0.000
  RDII Inflow ..............         0.000         0.000
  External Inflow ..........         0.000         0.000
  External Outflow .........         0.035         0.349
  Flooding Loss ............         0.000         0.000
  Evaporation Loss .........         0.000         0.000
  Exfiltration Loss ........         0.000         0.000
  Initial Stored Volume ....         0.000         0.000
  Final Stored Volume ......         0.002         0.015
  Continuity Error (%) .....         0.730
  
  
  *************************
  Highest Continuity Errors
  *************************
  Node j11 (1.42%)
  Node j14 (1.40%)
  Node j9 (1.12%)
  Node j2 (1.06%)
  Node j6 (1.01%)
  
  
  ********************************
  Highest Flow Instability Indexes
  ********************************
  Link l21 (10)
  Link l20 (7)
  Link l11 (6)
  Link l6 (6)
  Link l10 (6)
  
  
  *************************
  Routing Time Step Summary
  *************************
  Minimum Time Step           :    29.00 sec
  Average Time Step           :    29.99 sec
  Maximum Time Step           :    30.00 sec
  Percent in Steady State     :     0.00
  Average Iterations per Step :     2.23
  Percent Not Converging      :     0.00
  
  
  ***************************
  Subcatchment Runoff Summary
  ***************************
  
  ------------------------------------------------------------------------------------------------------------------------------
                            Total      Total      Total      Total     Imperv       Perv      Total       Total     Peak  Runoff
                           Precip      Runon       Evap      Infil     Runoff     Runoff     Runoff      Runoff   Runoff   Coeff
  Subcatchment                 mm         mm         mm         mm         mm         mm         mm    10^6 ltr      CMS
  ------------------------------------------------------------------------------------------------------------------------------
  s31                        8.40       0.00       0.00       6.73       1.45       0.00       1.45        0.00     0.00   0.172
  s32                        8.40       0.00       0.00       6.73       1.42       0.00       1.42        0.00     0.01   0.170
  s33                        8.40       0.00       0.00       6.73       1.43       0.00       1.43        0.00     0.01   0.170
  s34                        8.40       0.00       0.00       6.73       1.41       0.00       1.41        0.00     0.01   0.168
  s35                        8.40       0.00       0.00       1.68       4.72       0.00       4.72        0.01     0.01   0.561
  s36                        8.40       0.00       0.00       1.68       4.95       0.00       4.95        0.01     0.01   0.590
  s37                        8.40       0.00       0.00       1.68       4.82       0.00       4.82        0.01     0.01   0.573
  s38                        8.40       0.00       0.00       1.68       4.40       0.00       4.40        0.02     0.01   0.524
  s39                        8.40       0.00       0.00       1.68       4.08       0.00       4.08        0.03     0.02   0.486
  s40                        8.40       0.00       0.00       1.68       4.31       0.00       4.31        0.03     0.02   0.513
  s41                        8.40       0.00       0.00       6.73       1.38       0.00       1.38        0.01     0.01   0.164
  s42                        8.40       0.00       0.00       6.73       1.37       0.00       1.37        0.01     0.01   0.163
  s43                        8.40       0.00       0.00       6.73       1.37       0.00       1.37        0.01     0.01   0.163
  s46                        8.40       0.00       0.00       1.68       4.66       0.00       4.66        0.02     0.01   0.555
  s47                        8.40       0.00       0.00       1.68       4.58       0.00       4.58        0.02     0.01   0.545
  s48                        8.40       0.00       0.00       1.68       4.61       0.00       4.61        0.02     0.01   0.549
  s49                        8.40       0.00       0.00       1.68       4.53       0.00       4.53        0.02     0.01   0.539
  s50                        8.40       0.00       0.00       1.68       5.06       0.00       5.06        0.01     0.01   0.603
  s51                        8.40       0.00       0.00       1.68       5.01       0.00       5.01        0.01     0.01   0.596
  s52                        8.40       0.00       0.00       1.68       4.16       0.00       4.16        0.03     0.02   0.495
  s53                        8.40       0.00       0.00       1.68       4.30       0.00       4.30        0.03     0.02   0.512
  s54                        8.40       0.00       0.00       1.68       5.12       0.00       5.12        0.01     0.01   0.610
  s55                        8.40       0.00       0.00       1.68       5.19       0.00       5.19        0.01     0.01   0.618
  s56                        8.40       0.00       0.00       1.68       4.82       0.00       4.82        0.01     0.01   0.573
  s57                        8.40       0.00       0.00       1.68       4.91       0.00       4.91        0.01     0.01   0.584
  s58                        8.40       0.00       0.00       1.68       4.91       0.00       4.91        0.01     0.01   0.584
  s59                        8.40       0.00       0.00       6.73       1.44       0.00       1.44        0.00     0.00   0.171
  s60                        8.40       0.00       0.00       6.73       1.44       0.00       1.44        0.00     0.00   0.172
  s61                        8.40       0.00       0.00       6.73       1.44       0.00       1.44        0.00     0.00   0.172
  s62                        8.40       0.00       0.00       6.73       1.42       0.00       1.42        0.00     0.01   0.169
  s63                        8.40       0.00       0.00       6.73       1.40       0.00       1.40        0.01     0.01   0.166
  s64                        8.40       0.00       0.00       6.73       1.43       0.00       1.43        0.00     0.00   0.170
  
  
  ******************
  Node Depth Summary
  ******************
  
  ---------------------------------------------------------------------------------
                                 Average  Maximum  Maximum  Time of Max    Reported
                                   Depth    Depth      HGL   Occurrence   Max Depth
  Node                 Type       Meters   Meters   Meters  days hr:min      Meters
  ---------------------------------------------------------------------------------
  j1                   JUNCTION     0.02     0.04    37.34     0  00:10        0.04
  j2                   JUNCTION     0.04     0.07    36.24     0  00:10        0.07
  j3                   JUNCTION     0.06     0.09    35.02     0  00:10        0.09
  j4                   JUNCTION     0.06     0.10    34.26     0  00:10        0.10
  j6                   JUNCTION     0.08     0.13    33.02     0  00:11        0.13
  j7                   JUNCTION     0.08     0.13    32.38     0  00:10        0.13
  j8                   JUNCTION     0.04     0.05    35.27     0  00:14        0.05
  j9                   JUNCTION     0.05     0.07    34.05     0  00:15        0.07
  j10                  JUNCTION     0.03     0.04    37.49     0  00:10        0.04
  j11                  JUNCTION     0.05     0.07    36.57     0  00:10        0.07
  j12                  JUNCTION     0.03     0.04    37.43     0  00:10        0.04
  j13                  JUNCTION     0.03     0.04    35.89     0  00:10        0.04
  j14                  JUNCTION     0.05     0.09    35.02     0  00:11        0.09
  j15                  JUNCTION     0.06     0.09    34.14     0  00:11        0.09
  j16                  JUNCTION     0.06     0.10    33.36     0  00:11        0.10
  j17                  JUNCTION     0.06     0.10    32.66     0  00:11        0.10
  j18                  JUNCTION     0.11     0.17    31.64     0  00:11        0.17
  j19                  JUNCTION     0.11     0.18    31.11     0  00:11        0.17
  j20                  JUNCTION     0.11     0.18    30.51     0  00:11        0.18
  j21                  JUNCTION     0.10     0.17    29.93     0  00:12        0.17
  j22                  JUNCTION     0.11     0.20    29.30     0  00:12        0.20
  j23                  JUNCTION     0.01     0.02    35.10     0  00:08        0.02
  j24                  JUNCTION     0.01     0.04    34.51     0  00:08        0.04
  j25                  JUNCTION     0.02     0.05    33.92     0  00:08        0.05
  j26                  JUNCTION     0.02     0.05    33.23     0  00:08        0.05
  j27                  JUNCTION     0.03     0.07    32.43     0  00:09        0.07
  j28                  JUNCTION     0.03     0.08    31.23     0  00:09        0.08
  j29                  JUNCTION     0.04     0.09    30.17     0  00:10        0.09
  j30                  OUTFALL      0.11     0.19    28.69     0  00:12        0.19
  
  
  *******************
  Node Inflow Summary
  *******************
  
  -------------------------------------------------------------------------------------------------
                                  Maximum  Maximum                  Lateral       Total        Flow
                                  Lateral    Total  Time of Max      Inflow      Inflow     Balance
                                   Inflow   Inflow   Occurrence      Volume      Volume       Error
  Node                 Type           CMS      CMS  days hr:min    10^6 ltr    10^6 ltr     Percent
  -------------------------------------------------------------------------------------------------
  j1                   JUNCTION     0.011    0.011     0  00:10      0.0145      0.0145       1.196
  j2                   JUNCTION     0.023    0.034     0  00:10      0.0322      0.0465       1.072
  j3                   JUNCTION     0.026    0.059     0  00:10      0.0373      0.0833       0.788
  j4                   JUNCTION     0.019    0.076     0  00:10      0.0297       0.112       0.753
  j6                   JUNCTION     0.013    0.123     0  00:10      0.0148       0.183       1.020
  j7                   JUNCTION     0.011    0.132     0  00:11      0.0126       0.194       0.346
  j8                   JUNCTION     0.020    0.020     0  00:15      0.0324      0.0324       0.938
  j9                   JUNCTION     0.016    0.036     0  00:15      0.0252      0.0573       1.137
  j10                  JUNCTION     0.013    0.013     0  00:10      0.0177      0.0177       1.126
  j11                  JUNCTION     0.012    0.037     0  00:10      0.0169      0.0532       1.445
  j12                  JUNCTION     0.013    0.013     0  00:10      0.0189      0.0189       1.112
  j13                  JUNCTION     0.012    0.012     0  00:10      0.0158      0.0158       1.171
  j14                  JUNCTION     0.007    0.055     0  00:10     0.00807      0.0761       1.416
  j15                  JUNCTION     0.008    0.061     0  00:11     0.00897       0.084       0.706
  j16                  JUNCTION     0.006    0.067     0  00:11     0.00714      0.0905       0.587
  j17                  JUNCTION     0.006    0.072     0  00:12      0.0062      0.0962       0.573
  j18                  JUNCTION     0.009    0.213     0  00:11      0.0107       0.299       0.747
  j19                  JUNCTION     0.003    0.215     0  00:11     0.00187       0.299       0.282
  j20                  JUNCTION     0.006    0.219     0  00:11     0.00383       0.302       0.424
  j21                  JUNCTION     0.005    0.223     0  00:11     0.00286       0.304       0.233
  j22                  JUNCTION     0.009    0.275     0  00:11     0.00628       0.351       0.632
  j23                  JUNCTION     0.003    0.003     0  00:08     0.00173     0.00173       0.786
  j24                  JUNCTION     0.005    0.009     0  00:08     0.00342     0.00513       0.865
  j25                  JUNCTION     0.005    0.014     0  00:08     0.00328     0.00837       0.811
  j26                  JUNCTION     0.007    0.020     0  00:08     0.00452      0.0128       0.826
  j27                  JUNCTION     0.011    0.031     0  00:09     0.00881      0.0215       0.820
  j28                  JUNCTION     0.012    0.043     0  00:09      0.0104      0.0317       0.764
  j29                  JUNCTION     0.012    0.055     0  00:10      0.0102      0.0417       0.239
  j30                  OUTFALL      0.000    0.276     0  00:12           0       0.349       0.000
  
  
  **********************
  Node Surcharge Summary
  **********************
  
  No nodes were surcharged.
  
  
  *********************
  Node Flooding Summary
  *********************
  
  No nodes were flooded.
  
  
  ***********************
  Outfall Loading Summary
  ***********************
  
  -----------------------------------------------------------
                         Flow       Avg       Max       Total
                         Freq      Flow      Flow      Volume
  Outfall Node           Pcnt       CMS       CMS    10^6 ltr
  -----------------------------------------------------------
  j30                   94.29     0.118     0.276       0.349
  -----------------------------------------------------------
  System                94.29     0.118     0.276       0.349
  
  
  ********************
  Link Flow Summary
  ********************
  
  -----------------------------------------------------------------------------
                                 Maximum  Time of Max   Maximum    Max/    Max/
                                  |Flow|   Occurrence   |Veloc|    Full    Full
  Link                 Type          CMS  days hr:min     m/sec    Flow   Depth
  -----------------------------------------------------------------------------
  l1                   CONDUIT     0.011     0  00:10      0.57    0.00    0.05
  l2                   CONDUIT     0.033     0  00:10      1.03    0.01    0.07
  l3                   CONDUIT     0.058     0  00:10      1.38    0.01    0.08
  l6                   CONDUIT     0.020     0  00:15      0.87    0.00    0.05
  l7                   CONDUIT     0.036     0  00:15      0.81    0.01    0.08
  l8                   CONDUIT     0.122     0  00:11      1.81    0.02    0.11
  l9                   CONDUIT     0.132     0  00:11      1.61    0.03    0.13
  l10                  CONDUIT     0.012     0  00:10      0.71    0.00    0.05
  l11                  CONDUIT     0.013     0  00:10      0.74    0.00    0.05
  l12                  CONDUIT     0.037     0  00:11      1.14    0.01    0.07
  l13                  CONDUIT     0.011     0  00:10      0.68    0.00    0.05
  l14                  CONDUIT     0.055     0  00:11      1.41    0.01    0.08
  l15                  CONDUIT     0.061     0  00:11      1.47    0.01    0.08
  l16                  CONDUIT     0.067     0  00:12      1.52    0.01    0.08
  l17                  CONDUIT     0.073     0  00:11      1.02    0.01    0.11
  l18                  CONDUIT     0.213     0  00:11      2.10    0.04    0.15
  l19                  CONDUIT     0.215     0  00:11      2.08    0.04    0.15
  l20                  CONDUIT     0.220     0  00:11      2.15    0.04    0.15
  l21                  CONDUIT     0.223     0  00:12      2.01    0.04    0.16
  l22                  CONDUIT     0.003     0  00:08      0.42    0.00    0.03
  l23                  CONDUIT     0.009     0  00:08      0.71    0.00    0.03
  l24                  CONDUIT     0.014     0  00:08      0.84    0.00    0.04
  l25                  CONDUIT     0.020     0  00:09      0.93    0.00    0.05
  l26                  CONDUIT     0.031     0  00:09      1.11    0.01    0.06
  l27                  CONDUIT     0.043     0  00:10      1.26    0.01    0.07
  l28                  CONDUIT     0.056     0  00:10      1.01    0.01    0.12
  l29                  CONDUIT     0.276     0  00:12      2.33    0.05    0.16
  l30                  CONDUIT     0.076     0  00:11      1.35    0.01    0.10
  
  
  ***************************
  Flow Classification Summary
  ***************************
  
  -------------------------------------------------------------------------------------
                      Adjusted    ---------- Fraction of Time in Flow Class ---------- 
                       /Actual         Up    Down  Sub   Sup   Up    Down  Norm  Inlet 
  Conduit               Length    Dry  Dry   Dry   Crit  Crit  Crit  Crit  Ltd   Ctrl  
  -------------------------------------------------------------------------------------
  l1                      1.00   0.03  0.00  0.00  0.97  0.00  0.00  0.00  0.96  0.00
  l2                      1.00   0.03  0.00  0.00  0.08  0.90  0.00  0.00  0.97  0.00
  l3                      1.00   0.03  0.00  0.00  0.07  0.90  0.00  0.00  0.96  0.00
  l6                      1.00   0.03  0.00  0.00  0.07  0.90  0.00  0.00  0.94  0.00
  l7                      1.00   0.03  0.00  0.00  0.95  0.02  0.00  0.00  0.96  0.00
  l8                      1.00   0.03  0.00  0.00  0.09  0.89  0.00  0.00  0.12  0.00
  l9                      1.00   0.03  0.00  0.00  0.09  0.89  0.00  0.00  0.94  0.00
  l10                     1.00   0.03  0.00  0.00  0.95  0.02  0.00  0.00  0.96  0.00
  l11                     1.00   0.03  0.00  0.00  0.75  0.22  0.00  0.00  0.96  0.00
  l12                     1.00   0.03  0.00  0.00  0.09  0.89  0.00  0.00  0.96  0.00
  l13                     1.00   0.03  0.00  0.00  0.95  0.02  0.00  0.00  0.96  0.00
  l14                     1.00   0.04  0.00  0.00  0.10  0.86  0.00  0.00  0.28  0.00
  l15                     1.00   0.04  0.00  0.00  0.10  0.87  0.00  0.00  0.16  0.00
  l16                     1.00   0.04  0.00  0.00  0.09  0.88  0.00  0.00  0.16  0.00
  l17                     1.00   0.04  0.00  0.00  0.60  0.36  0.00  0.00  0.96  0.00
  l18                     1.00   0.04  0.00  0.00  0.10  0.87  0.00  0.00  0.11  0.00
  l19                     1.00   0.03  0.01  0.00  0.10  0.86  0.00  0.00  0.11  0.00
  l20                     1.00   0.03  0.00  0.00  0.10  0.87  0.00  0.00  0.11  0.00
  l21                     1.00   0.03  0.01  0.00  0.10  0.87  0.00  0.00  0.12  0.00
  l22                     1.00   0.03  0.01  0.00  0.91  0.05  0.00  0.00  0.96  0.00
  l23                     1.00   0.03  0.00  0.00  0.50  0.47  0.00  0.00  0.96  0.00
  l24                     1.00   0.03  0.01  0.00  0.35  0.61  0.00  0.00  0.96  0.00
  l25                     1.00   0.03  0.00  0.00  0.37  0.60  0.00  0.00  0.96  0.00
  l26                     1.00   0.03  0.00  0.00  0.09  0.89  0.00  0.00  0.96  0.00
  l27                     1.00   0.03  0.00  0.00  0.09  0.89  0.00  0.00  0.96  0.00
  l28                     1.00   0.03  0.00  0.00  0.92  0.05  0.00  0.00  0.96  0.00
  l29                     1.00   0.03  0.00  0.00  0.07  0.90  0.00  0.00  0.00  0.00
  l30                     1.00   0.03  0.00  0.00  0.09  0.89  0.00  0.00  0.96  0.00
  
  
  *************************
  Conduit Surcharge Summary
  *************************
  
  No conduits were surcharged.
  

  Analysis begun on:  Wed May  6 00:21:50 2020
  Analysis ended on:  Wed May  6 00:21:50 2020
  Total elapsed time: < 1 sec