
  EPA STORM WATER MANAGEMENT MODEL - VERSION 5.1 (Build 5.3.0)
  --------------------------------------------------------------

  
  *********************************************************
  NOTE: The summary statistics displayed in this report are
  based on results found at every computational time step,  
  not just on results from each reporting time step.
  *********************************************************
  
  ****************
  Analysis Options
  ****************
  Flow Units ............... CMS
  Process Models:
    Rainfall/Runoff ........ YES
    RDII ................... NO
    Snowmelt ............... NO
    Groundwater ............ NO
    Flow Routing ........... YES
    Ponding Allowed ........ NO
    Water Quality .......... NO
  Infiltration Method ...... MODIFIED_GREEN_AMPT
  Flow Routing Method ...... DYNWAVE
  Surcharge Method ......... EXTRAN
  Starting Date ............ 08/25/2019 17:07:30
  Ending Date .............. 08/25/2019 21:26:00
  Antecedent Dry Days ...... 10.0
  Report Time Step ......... 00:01:00
  Wet Time Step ............ 00:01:00
  Dry Time Step ............ 01:00:00
  Routing Time Step ........ 30.00 sec
  Variable Time Step ....... NO
  Maximum Trials ........... 8
  Number of Threads ........ 1
  Head Tolerance ........... 0.001500 m
  
  
  **************************        Volume         Depth
  Runoff Quantity Continuity     hectare-m            mm
  **************************     ---------       -------
  Total Precipitation ......         0.656        58.600
  Evaporation Loss .........         0.000         0.000
  Infiltration Loss ........         0.286        25.574
  Surface Runoff ...........         0.353        31.505
  Final Storage ............         0.017         1.543
  Continuity Error (%) .....        -0.038
  
  
  **************************        Volume        Volume
  Flow Routing Continuity        hectare-m      10^6 ltr
  **************************     ---------     ---------
  Dry Weather Inflow .......         0.000         0.000
  Wet Weather Inflow .......         0.352         3.523
  Groundwater Inflow .......         0.000         0.000
  RDII Inflow ..............         0.000         0.000
  External Inflow ..........         0.000         0.000
  External Outflow .........         0.351         3.505
  Flooding Loss ............         0.000         0.000
  Evaporation Loss .........         0.000         0.000
  Exfiltration Loss ........         0.000         0.000
  Initial Stored Volume ....         0.000         0.000
  Final Stored Volume ......         0.002         0.016
  Continuity Error (%) .....         0.038
  
  
  ********************************
  Highest Flow Instability Indexes
  ********************************
  Link l11 (22)
  Link l10 (22)
  Link l6 (22)
  Link l13 (21)
  Link l21 (20)
  
  
  *************************
  Routing Time Step Summary
  *************************
  Minimum Time Step           :    30.00 sec
  Average Time Step           :    30.00 sec
  Maximum Time Step           :    30.00 sec
  Percent in Steady State     :     0.00
  Average Iterations per Step :     2.30
  Percent Not Converging      :     0.00
  
  
  ***************************
  Subcatchment Runoff Summary
  ***************************
  
  ------------------------------------------------------------------------------------------------------------------------------
                            Total      Total      Total      Total     Imperv       Perv      Total       Total     Peak  Runoff
                           Precip      Runon       Evap      Infil     Runoff     Runoff     Runoff      Runoff   Runoff   Coeff
  Subcatchment                 mm         mm         mm         mm         mm         mm         mm    10^6 ltr      CMS
  ------------------------------------------------------------------------------------------------------------------------------
  s31                       58.60       0.00       0.00      46.94      11.39       0.00      11.39        0.01     0.01   0.194
  s32                       58.60       0.00       0.00      46.94      11.36       0.00      11.36        0.03     0.01   0.194
  s33                       58.60       0.00       0.00      46.94      11.36       0.00      11.36        0.03     0.01   0.194
  s34                       58.60       0.00       0.00      46.94      11.34       0.00      11.34        0.04     0.02   0.194
  s35                       58.60       0.00       0.00      11.73      44.75       0.00      44.75        0.14     0.06   0.764
  s36                       58.60       0.00       0.00      11.73      44.95       0.00      44.95        0.09     0.04   0.767
  s37                       58.60       0.00       0.00      11.73      44.83       0.00      44.83        0.12     0.05   0.765
  s38                       58.60       0.00       0.00      11.73      44.48       0.00      44.48        0.23     0.09   0.759
  s39                       58.60       0.00       0.00      11.73      44.19       0.00      44.19        0.35     0.13   0.754
  s40                       58.60       0.00       0.00      11.73      44.41       0.00      44.41        0.26     0.10   0.758
  s41                       58.60       0.00       0.00      46.94      11.31       0.00      11.31        0.07     0.04   0.193
  s42                       58.60       0.00       0.00      46.94      11.30       0.00      11.30        0.09     0.04   0.193
  s43                       58.60       0.00       0.00      46.94      11.30       0.00      11.30        0.08     0.04   0.193
  s46                       58.60       0.00       0.00      11.73      44.70       0.00      44.70        0.15     0.06   0.763
  s47                       58.60       0.00       0.00      11.73      44.63       0.00      44.63        0.17     0.07   0.762
  s48                       58.60       0.00       0.00      11.73      44.66       0.00      44.66        0.17     0.07   0.762
  s49                       58.60       0.00       0.00      11.73      44.59       0.00      44.59        0.19     0.07   0.761
  s50                       58.60       0.00       0.00      11.73      45.04       0.00      45.04        0.07     0.03   0.769
  s51                       58.60       0.00       0.00      11.73      44.99       0.00      44.99        0.08     0.03   0.768
  s52                       58.60       0.00       0.00      11.73      44.27       0.00      44.27        0.32     0.12   0.755
  s53                       58.60       0.00       0.00      11.73      44.40       0.00      44.40        0.26     0.10   0.758
  s54                       58.60       0.00       0.00      11.73      45.08       0.00      45.08        0.06     0.03   0.769
  s55                       58.60       0.00       0.00      11.73      45.14       0.00      45.14        0.05     0.02   0.770
  s56                       58.60       0.00       0.00      11.73      44.83       0.00      44.83        0.12     0.05   0.765
  s57                       58.60       0.00       0.00      11.73      44.91       0.00      44.91        0.10     0.04   0.766
  s58                       58.60       0.00       0.00      11.73      44.91       0.00      44.91        0.10     0.04   0.766
  s59                       58.60       0.00       0.00      46.94      11.37       0.00      11.37        0.02     0.01   0.194
  s60                       58.60       0.00       0.00      46.94      11.38       0.00      11.38        0.01     0.01   0.194
  s61                       58.60       0.00       0.00      46.94      11.38       0.00      11.38        0.01     0.01   0.194
  s62                       58.60       0.00       0.00      46.94      11.35       0.00      11.35        0.03     0.02   0.194
  s63                       58.60       0.00       0.00      46.94      11.33       0.00      11.33        0.05     0.03   0.193
  s64                       58.60       0.00       0.00      46.94      11.37       0.00      11.37        0.02     0.01   0.194
  
  
  ******************
  Node Depth Summary
  ******************
  
  ---------------------------------------------------------------------------------
                                 Average  Maximum  Maximum  Time of Max    Reported
                                   Depth    Depth      HGL   Occurrence   Max Depth
  Node                 Type       Meters   Meters   Meters  days hr:min      Meters
  ---------------------------------------------------------------------------------
  j1                   JUNCTION     0.03     0.09    37.39     0  01:51        0.09
  j2                   JUNCTION     0.06     0.15    36.32     0  01:51        0.15
  j3                   JUNCTION     0.08     0.21    35.14     0  01:51        0.21
  j4                   JUNCTION     0.09     0.24    34.40     0  01:51        0.24
  j6                   JUNCTION     0.12     0.33    33.22     0  01:51        0.33
  j7                   JUNCTION     0.12     0.34    32.59     0  01:51        0.34
  j8                   JUNCTION     0.05     0.13    35.35     0  01:51        0.13
  j9                   JUNCTION     0.07     0.17    34.15     0  01:51        0.17
  j10                  JUNCTION     0.04     0.10    37.55     0  01:51        0.10
  j11                  JUNCTION     0.06     0.17    36.67     0  01:51        0.17
  j12                  JUNCTION     0.04     0.10    37.49     0  01:51        0.10
  j13                  JUNCTION     0.03     0.09    35.94     0  01:51        0.09
  j14                  JUNCTION     0.07     0.20    35.13     0  01:51        0.20
  j15                  JUNCTION     0.08     0.22    34.27     0  01:51        0.22
  j16                  JUNCTION     0.08     0.23    33.49     0  01:51        0.23
  j17                  JUNCTION     0.08     0.22    32.78     0  01:51        0.22
  j18                  JUNCTION     0.15     0.45    31.92     0  01:51        0.45
  j19                  JUNCTION     0.15     0.44    31.37     0  01:51        0.44
  j20                  JUNCTION     0.15     0.45    30.78     0  01:52        0.45
  j21                  JUNCTION     0.15     0.44    30.20     0  01:52        0.44
  j22                  JUNCTION     0.16     0.49    29.59     0  01:52        0.49
  j23                  JUNCTION     0.01     0.03    35.11     0  01:48        0.03
  j24                  JUNCTION     0.02     0.06    34.53     0  01:50        0.06
  j25                  JUNCTION     0.02     0.07    33.94     0  01:50        0.07
  j26                  JUNCTION     0.03     0.09    33.27     0  01:50        0.09
  j27                  JUNCTION     0.04     0.11    32.47     0  01:50        0.11
  j28                  JUNCTION     0.04     0.13    31.28     0  01:50        0.13
  j29                  JUNCTION     0.05     0.15    30.23     0  01:50        0.15
  j30                  OUTFALL      0.15     0.43    28.93     0  01:52        0.43
  
  
  *******************
  Node Inflow Summary
  *******************
  
  -------------------------------------------------------------------------------------------------
                                  Maximum  Maximum                  Lateral       Total        Flow
                                  Lateral    Total  Time of Max      Inflow      Inflow     Balance
                                   Inflow   Inflow   Occurrence      Volume      Volume       Error
  Node                 Type           CMS      CMS  days hr:min    10^6 ltr    10^6 ltr     Percent
  -------------------------------------------------------------------------------------------------
  j1                   JUNCTION     0.057    0.057     0  01:51       0.139       0.139       0.093
  j2                   JUNCTION     0.126    0.183     0  01:51       0.317       0.455       0.094
  j3                   JUNCTION     0.147    0.330     0  01:51       0.374       0.828       0.078
  j4                   JUNCTION     0.119    0.449     0  01:51       0.318        1.15       0.059
  j6                   JUNCTION     0.058    0.732     0  01:51       0.135        1.89       0.103
  j7                   JUNCTION     0.049    0.778     0  01:51       0.114        2.01       0.035
  j8                   JUNCTION     0.131    0.131     0  01:51       0.353       0.353       0.057
  j9                   JUNCTION     0.100    0.230     0  01:51       0.262       0.615       0.102
  j10                  JUNCTION     0.069    0.069     0  01:51       0.174       0.174       0.067
  j11                  JUNCTION     0.066    0.209     0  01:50       0.165       0.526       0.152
  j12                  JUNCTION     0.074    0.074     0  01:51       0.187       0.187       0.071
  j13                  JUNCTION     0.061    0.061     0  01:51       0.152       0.152       0.081
  j14                  JUNCTION     0.031    0.302     0  01:51       0.072       0.749       0.149
  j15                  JUNCTION     0.035    0.334     0  01:51      0.0809       0.829       0.069
  j16                  JUNCTION     0.028    0.360     0  01:51      0.0631       0.891       0.044
  j17                  JUNCTION     0.024    0.386     0  01:51      0.0541       0.945       0.075
  j18                  JUNCTION     0.042    1.207     0  01:51      0.0987        3.05       0.073
  j19                  JUNCTION     0.008    1.206     0  01:52      0.0148        3.06       0.039
  j20                  JUNCTION     0.016    1.221     0  01:51      0.0306        3.09       0.034
  j21                  JUNCTION     0.012    1.231     0  01:52      0.0227        3.11       0.023
  j22                  JUNCTION     0.025    1.410     0  01:52      0.0509        3.51       0.061
  j23                  JUNCTION     0.007    0.007     0  01:48      0.0137      0.0137       0.179
  j24                  JUNCTION     0.014    0.021     0  01:50      0.0272      0.0409       0.164
  j25                  JUNCTION     0.013    0.035     0  01:50      0.0261      0.0669       0.156
  j26                  JUNCTION     0.018    0.053     0  01:50      0.0363       0.103       0.129
  j27                  JUNCTION     0.035    0.088     0  01:50      0.0723       0.175       0.110
  j28                  JUNCTION     0.041    0.129     0  01:50      0.0858       0.261       0.120
  j29                  JUNCTION     0.041    0.169     0  01:50      0.0847       0.345       0.036
  j30                  OUTFALL      0.000    1.413     0  01:52           0        3.51       0.000
  
  
  **********************
  Node Surcharge Summary
  **********************
  
  No nodes were surcharged.
  
  
  *********************
  Node Flooding Summary
  *********************
  
  No nodes were flooded.
  
  
  ***********************
  Outfall Loading Summary
  ***********************
  
  -----------------------------------------------------------
                         Flow       Avg       Max       Total
                         Freq      Flow      Flow      Volume
  Outfall Node           Pcnt       CMS       CMS    10^6 ltr
  -----------------------------------------------------------
  j30                   97.49     0.232     1.413       3.505
  -----------------------------------------------------------
  System                97.49     0.232     1.413       3.505
  
  
  ********************
  Link Flow Summary
  ********************
  
  -----------------------------------------------------------------------------
                                 Maximum  Time of Max   Maximum    Max/    Max/
                                  |Flow|   Occurrence   |Veloc|    Full    Full
  Link                 Type          CMS  days hr:min     m/sec    Flow   Depth
  -----------------------------------------------------------------------------
  l1                   CONDUIT     0.057     0  01:51      0.94    0.01    0.10
  l2                   CONDUIT     0.183     0  01:51      1.67    0.04    0.15
  l3                   CONDUIT     0.329     0  01:51      2.23    0.06    0.19
  l6                   CONDUIT     0.130     0  01:51      1.55    0.03    0.13
  l7                   CONDUIT     0.230     0  01:51      1.33    0.04    0.21
  l8                   CONDUIT     0.731     0  01:51      2.87    0.14    0.28
  l9                   CONDUIT     0.781     0  01:51      2.44    0.15    0.33
  l10                  CONDUIT     0.069     0  01:50      1.02    0.01    0.11
  l11                  CONDUIT     0.074     0  01:50      1.07    0.01    0.11
  l12                  CONDUIT     0.210     0  01:51      1.91    0.04    0.15
  l13                  CONDUIT     0.061     0  01:50      0.77    0.01    0.12
  l14                  CONDUIT     0.301     0  01:51      2.29    0.06    0.17
  l15                  CONDUIT     0.334     0  01:51      2.34    0.07    0.18
  l16                  CONDUIT     0.363     0  01:51      2.46    0.07    0.19
  l17                  CONDUIT     0.387     0  01:51      1.50    0.08    0.28
  l18                  CONDUIT     1.201     0  01:52      3.14    0.23    0.37
  l19                  CONDUIT     1.208     0  01:51      3.15    0.24    0.37
  l20                  CONDUIT     1.223     0  01:52      3.18    0.24    0.37
  l21                  CONDUIT     1.231     0  01:52      3.04    0.24    0.39
  l22                  CONDUIT     0.007     0  01:49      0.53    0.00    0.04
  l23                  CONDUIT     0.021     0  01:50      0.92    0.00    0.05
  l24                  CONDUIT     0.034     0  01:49      1.10    0.01    0.07
  l25                  CONDUIT     0.053     0  01:50      1.22    0.01    0.08
  l26                  CONDUIT     0.088     0  01:50      1.49    0.02    0.10
  l27                  CONDUIT     0.129     0  01:50      1.74    0.03    0.12
  l28                  CONDUIT     0.169     0  01:51      0.74    0.03    0.26
  l29                  CONDUIT     1.413     0  01:52      3.56    0.27    0.38
  l30                  CONDUIT     0.448     0  01:51      2.18    0.09    0.24
  
  
  ***************************
  Flow Classification Summary
  ***************************
  
  -------------------------------------------------------------------------------------
                      Adjusted    ---------- Fraction of Time in Flow Class ---------- 
                       /Actual         Up    Down  Sub   Sup   Up    Down  Norm  Inlet 
  Conduit               Length    Dry  Dry   Dry   Crit  Crit  Crit  Crit  Ltd   Ctrl  
  -------------------------------------------------------------------------------------
  l1                      1.00   0.01  0.00  0.00  0.93  0.06  0.00  0.00  0.99  0.00
  l2                      1.00   0.01  0.00  0.00  0.05  0.94  0.00  0.00  0.99  0.00
  l3                      1.00   0.01  0.00  0.00  0.03  0.96  0.00  0.00  0.88  0.00
  l6                      1.00   0.01  0.00  0.00  0.05  0.94  0.00  0.00  0.99  0.00
  l7                      1.00   0.01  0.00  0.00  0.53  0.46  0.00  0.00  0.99  0.00
  l8                      1.00   0.01  0.00  0.00  0.03  0.96  0.00  0.00  0.06  0.00
  l9                      1.00   0.01  0.00  0.00  0.04  0.96  0.00  0.00  0.82  0.00
  l10                     1.00   0.01  0.00  0.00  0.79  0.20  0.00  0.00  0.99  0.00
  l11                     1.00   0.01  0.00  0.00  0.59  0.40  0.00  0.00  0.99  0.00
  l12                     1.00   0.01  0.00  0.00  0.05  0.95  0.00  0.00  0.97  0.00
  l13                     1.00   0.01  0.00  0.00  0.99  0.00  0.00  0.00  0.99  0.00
  l14                     1.00   0.01  0.00  0.00  0.04  0.95  0.00  0.00  0.48  0.00
  l15                     1.00   0.01  0.00  0.00  0.04  0.95  0.00  0.00  0.26  0.00
  l16                     1.00   0.01  0.00  0.00  0.05  0.94  0.00  0.00  0.08  0.00
  l17                     1.00   0.01  0.00  0.00  0.79  0.20  0.00  0.00  0.99  0.00
  l18                     1.00   0.01  0.00  0.00  0.03  0.96  0.00  0.00  0.04  0.00
  l19                     1.00   0.01  0.00  0.00  0.05  0.95  0.00  0.00  0.07  0.00
  l20                     1.00   0.01  0.00  0.00  0.05  0.94  0.00  0.00  0.05  0.00
  l21                     1.00   0.01  0.00  0.00  0.06  0.94  0.00  0.00  0.07  0.00
  l22                     1.00   0.01  0.00  0.00  0.97  0.02  0.00  0.00  0.99  0.00
  l23                     1.00   0.01  0.00  0.00  0.30  0.69  0.00  0.00  0.99  0.00
  l24                     1.00   0.01  0.00  0.00  0.05  0.94  0.00  0.00  0.99  0.00
  l25                     1.00   0.01  0.00  0.00  0.05  0.94  0.00  0.00  0.99  0.00
  l26                     1.00   0.01  0.00  0.00  0.05  0.94  0.00  0.00  0.99  0.00
  l27                     1.00   0.01  0.00  0.00  0.05  0.95  0.00  0.00  0.97  0.00
  l28                     1.00   0.01  0.00  0.00  0.98  0.01  0.00  0.00  0.98  0.00
  l29                     1.00   0.01  0.00  0.00  0.03  0.97  0.00  0.00  0.00  0.00
  l30                     1.00   0.01  0.00  0.00  0.04  0.95  0.00  0.00  0.99  0.00
  
  
  *************************
  Conduit Surcharge Summary
  *************************
  
  No conduits were surcharged.
  

  Analysis begun on:  Wed May  6 00:37:16 2020
  Analysis ended on:  Wed May  6 00:37:16 2020
  Total elapsed time: < 1 sec