
  EPA STORM WATER MANAGEMENT MODEL - VERSION 5.1 (Build 5.3.0)
  --------------------------------------------------------------

  
  *********************************************************
  NOTE: The summary statistics displayed in this report are
  based on results found at every computational time step,  
  not just on results from each reporting time step.
  *********************************************************
  
  ****************
  Analysis Options
  ****************
  Flow Units ............... CMS
  Process Models:
    Rainfall/Runoff ........ YES
    RDII ................... NO
    Snowmelt ............... NO
    Groundwater ............ NO
    Flow Routing ........... YES
    Ponding Allowed ........ NO
    Water Quality .......... NO
  Infiltration Method ...... MODIFIED_GREEN_AMPT
  Flow Routing Method ...... DYNWAVE
  Surcharge Method ......... EXTRAN
  Starting Date ............ 06/25/2018 16:06:30
  Ending Date .............. 06/25/2018 22:12:00
  Antecedent Dry Days ...... 10.0
  Report Time Step ......... 00:01:00
  Wet Time Step ............ 00:01:00
  Dry Time Step ............ 01:00:00
  Routing Time Step ........ 30.00 sec
  Variable Time Step ....... NO
  Maximum Trials ........... 8
  Number of Threads ........ 1
  Head Tolerance ........... 0.001500 m
  
  
  **************************        Volume         Depth
  Runoff Quantity Continuity     hectare-m            mm
  **************************     ---------       -------
  Total Precipitation ......         0.557        49.800
  Evaporation Loss .........         0.000         0.000
  Infiltration Loss ........         0.243        21.734
  Surface Runoff ...........         0.306        27.372
  Final Storage ............         0.008         0.709
  Continuity Error (%) .....        -0.029
  
  
  **************************        Volume        Volume
  Flow Routing Continuity        hectare-m      10^6 ltr
  **************************     ---------     ---------
  Dry Weather Inflow .......         0.000         0.000
  Wet Weather Inflow .......         0.306         3.063
  Groundwater Inflow .......         0.000         0.000
  RDII Inflow ..............         0.000         0.000
  External Inflow ..........         0.000         0.000
  External Outflow .........         0.306         3.056
  Flooding Loss ............         0.000         0.000
  Evaporation Loss .........         0.000         0.000
  Exfiltration Loss ........         0.000         0.000
  Initial Stored Volume ....         0.000         0.000
  Final Stored Volume ......         0.000         0.002
  Continuity Error (%) .....         0.161
  
  
  ********************************
  Highest Flow Instability Indexes
  ********************************
  Link l6 (6)
  Link l7 (5)
  Link l10 (5)
  Link l11 (5)
  Link l9 (5)
  
  
  *************************
  Routing Time Step Summary
  *************************
  Minimum Time Step           :    30.00 sec
  Average Time Step           :    30.00 sec
  Maximum Time Step           :    30.00 sec
  Percent in Steady State     :     0.00
  Average Iterations per Step :     2.25
  Percent Not Converging      :     0.00
  
  
  ***************************
  Subcatchment Runoff Summary
  ***************************
  
  ------------------------------------------------------------------------------------------------------------------------------
                            Total      Total      Total      Total     Imperv       Perv      Total       Total     Peak  Runoff
                           Precip      Runon       Evap      Infil     Runoff     Runoff     Runoff      Runoff   Runoff   Coeff
  Subcatchment                 mm         mm         mm         mm         mm         mm         mm    10^6 ltr      CMS
  ------------------------------------------------------------------------------------------------------------------------------
  s31                       49.80       0.00       0.00      39.89       9.72       0.00       9.72        0.01     0.01   0.195
  s32                       49.80       0.00       0.00      39.89       9.72       0.00       9.72        0.02     0.01   0.195
  s33                       49.80       0.00       0.00      39.89       9.72       0.00       9.72        0.02     0.01   0.195
  s34                       49.80       0.00       0.00      39.89       9.71       0.00       9.71        0.03     0.02   0.195
  s35                       49.80       0.00       0.00       9.97      38.86       0.00      38.86        0.12     0.05   0.780
  s36                       49.80       0.00       0.00       9.97      38.91       0.00      38.91        0.08     0.03   0.781
  s37                       49.80       0.00       0.00       9.97      38.88       0.00      38.88        0.10     0.04   0.781
  s38                       49.80       0.00       0.00       9.97      38.80       0.00      38.80        0.20     0.08   0.779
  s39                       49.80       0.00       0.00       9.97      38.72       0.00      38.72        0.31     0.12   0.777
  s40                       49.80       0.00       0.00       9.97      38.78       0.00      38.78        0.22     0.09   0.779
  s41                       49.80       0.00       0.00      39.89       9.70       0.00       9.70        0.06     0.03   0.195
  s42                       49.80       0.00       0.00      39.89       9.70       0.00       9.70        0.07     0.04   0.195
  s43                       49.80       0.00       0.00      39.89       9.70       0.00       9.70        0.07     0.04   0.195
  s46                       49.80       0.00       0.00       9.97      38.85       0.00      38.85        0.13     0.05   0.780
  s47                       49.80       0.00       0.00       9.97      38.83       0.00      38.83        0.15     0.06   0.780
  s48                       49.80       0.00       0.00       9.97      38.84       0.00      38.84        0.14     0.06   0.780
  s49                       49.80       0.00       0.00       9.97      38.82       0.00      38.82        0.16     0.07   0.780
  s50                       49.80       0.00       0.00       9.97      38.93       0.00      38.93        0.06     0.03   0.782
  s51                       49.80       0.00       0.00       9.97      38.92       0.00      38.92        0.07     0.03   0.781
  s52                       49.80       0.00       0.00       9.97      38.74       0.00      38.74        0.28     0.11   0.778
  s53                       49.80       0.00       0.00       9.97      38.77       0.00      38.77        0.23     0.09   0.779
  s54                       49.80       0.00       0.00       9.97      38.94       0.00      38.94        0.05     0.02   0.782
  s55                       49.80       0.00       0.00       9.97      38.95       0.00      38.95        0.05     0.02   0.782
  s56                       49.80       0.00       0.00       9.97      38.88       0.00      38.88        0.10     0.04   0.781
  s57                       49.80       0.00       0.00       9.97      38.90       0.00      38.90        0.09     0.04   0.781
  s58                       49.80       0.00       0.00       9.97      38.90       0.00      38.90        0.09     0.04   0.781
  s59                       49.80       0.00       0.00      39.89       9.72       0.00       9.72        0.02     0.01   0.195
  s60                       49.80       0.00       0.00      39.89       9.72       0.00       9.72        0.01     0.01   0.195
  s61                       49.80       0.00       0.00      39.89       9.72       0.00       9.72        0.01     0.01   0.195
  s62                       49.80       0.00       0.00      39.89       9.71       0.00       9.71        0.03     0.01   0.195
  s63                       49.80       0.00       0.00      39.89       9.71       0.00       9.71        0.04     0.02   0.195
  s64                       49.80       0.00       0.00      39.89       9.72       0.00       9.72        0.02     0.01   0.195
  
  
  ******************
  Node Depth Summary
  ******************
  
  ---------------------------------------------------------------------------------
                                 Average  Maximum  Maximum  Time of Max    Reported
                                   Depth    Depth      HGL   Occurrence   Max Depth
  Node                 Type       Meters   Meters   Meters  days hr:min      Meters
  ---------------------------------------------------------------------------------
  j1                   JUNCTION     0.02     0.08    37.38     0  01:18        0.08
  j2                   JUNCTION     0.04     0.15    36.32     0  01:18        0.14
  j3                   JUNCTION     0.05     0.20    35.13     0  01:18        0.20
  j4                   JUNCTION     0.06     0.22    34.38     0  01:18        0.22
  j6                   JUNCTION     0.07     0.31    33.20     0  01:19        0.31
  j7                   JUNCTION     0.07     0.31    32.56     0  01:19        0.31
  j8                   JUNCTION     0.03     0.12    35.34     0  01:19        0.12
  j9                   JUNCTION     0.04     0.16    34.14     0  01:18        0.16
  j10                  JUNCTION     0.02     0.09    37.54     0  01:18        0.09
  j11                  JUNCTION     0.04     0.16    36.66     0  01:18        0.15
  j12                  JUNCTION     0.02     0.09    37.48     0  01:18        0.09
  j13                  JUNCTION     0.02     0.09    35.94     0  01:18        0.09
  j14                  JUNCTION     0.05     0.19    35.12     0  01:19        0.19
  j15                  JUNCTION     0.05     0.20    34.25     0  01:19        0.20
  j16                  JUNCTION     0.05     0.21    33.47     0  01:19        0.21
  j17                  JUNCTION     0.05     0.21    32.77     0  01:19        0.21
  j18                  JUNCTION     0.09     0.41    31.88     0  01:19        0.41
  j19                  JUNCTION     0.09     0.41    31.34     0  01:19        0.41
  j20                  JUNCTION     0.10     0.41    30.74     0  01:20        0.41
  j21                  JUNCTION     0.09     0.41    30.17     0  01:20        0.41
  j22                  JUNCTION     0.10     0.45    29.55     0  01:20        0.45
  j23                  JUNCTION     0.00     0.03    35.11     0  01:18        0.03
  j24                  JUNCTION     0.01     0.05    34.52     0  01:18        0.05
  j25                  JUNCTION     0.01     0.07    33.94     0  01:18        0.07
  j26                  JUNCTION     0.01     0.08    33.26     0  01:18        0.08
  j27                  JUNCTION     0.02     0.10    32.46     0  01:18        0.10
  j28                  JUNCTION     0.02     0.12    31.27     0  01:18        0.12
  j29                  JUNCTION     0.03     0.14    30.22     0  01:18        0.14
  j30                  OUTFALL      0.09     0.40    28.90     0  01:20        0.40
  
  
  *******************
  Node Inflow Summary
  *******************
  
  -------------------------------------------------------------------------------------------------
                                  Maximum  Maximum                  Lateral       Total        Flow
                                  Lateral    Total  Time of Max      Inflow      Inflow     Balance
                                   Inflow   Inflow   Occurrence      Volume      Volume       Error
  Node                 Type           CMS      CMS  days hr:min    10^6 ltr    10^6 ltr     Percent
  -------------------------------------------------------------------------------------------------
  j1                   JUNCTION     0.049    0.049     0  01:18        0.12        0.12       0.027
  j2                   JUNCTION     0.111    0.159     0  01:18       0.276       0.396       0.045
  j3                   JUNCTION     0.129    0.285     0  01:18       0.326       0.722       0.047
  j4                   JUNCTION     0.105    0.389     0  01:18       0.279           1       0.009
  j6                   JUNCTION     0.051    0.642     0  01:18       0.117        1.66       0.066
  j7                   JUNCTION     0.043    0.681     0  01:19      0.0982        1.75      -0.028
  j8                   JUNCTION     0.115    0.115     0  01:18        0.31        0.31       0.019
  j9                   JUNCTION     0.088    0.202     0  01:18       0.229       0.538       0.045
  j10                  JUNCTION     0.061    0.061     0  01:18       0.151       0.151       0.017
  j11                  JUNCTION     0.058    0.182     0  01:18       0.144       0.458       0.068
  j12                  JUNCTION     0.065    0.065     0  01:18       0.163       0.163       0.007
  j13                  JUNCTION     0.054    0.054     0  01:18       0.132       0.132       0.003
  j14                  JUNCTION     0.027    0.261     0  01:18      0.0623       0.652       0.096
  j15                  JUNCTION     0.030    0.289     0  01:19        0.07       0.722       0.026
  j16                  JUNCTION     0.024    0.310     0  01:19      0.0545       0.776       0.013
  j17                  JUNCTION     0.021    0.330     0  01:19      0.0467       0.823      -0.001
  j18                  JUNCTION     0.036    1.040     0  01:19      0.0856        2.66       0.076
  j19                  JUNCTION     0.007    1.049     0  01:19      0.0126        2.67       0.002
  j20                  JUNCTION     0.014    1.056     0  01:20      0.0262         2.7       0.023
  j21                  JUNCTION     0.010    1.070     0  01:20      0.0194        2.72      -0.006
  j22                  JUNCTION     0.022    1.222     0  01:20      0.0437        3.06       0.027
  j23                  JUNCTION     0.006    0.006     0  01:18      0.0117      0.0117      -0.031
  j24                  JUNCTION     0.012    0.018     0  01:18      0.0233       0.035       0.042
  j25                  JUNCTION     0.012    0.030     0  01:18      0.0223      0.0573       0.063
  j26                  JUNCTION     0.016    0.045     0  01:18      0.0311      0.0884       0.066
  j27                  JUNCTION     0.030    0.074     0  01:18      0.0621        0.15       0.071
  j28                  JUNCTION     0.036    0.108     0  01:18      0.0737       0.224       0.076
  j29                  JUNCTION     0.035    0.141     0  01:18      0.0728       0.297      -0.016
  j30                  OUTFALL      0.000    1.216     0  01:20           0        3.06       0.000
  
  
  **********************
  Node Surcharge Summary
  **********************
  
  No nodes were surcharged.
  
  
  *********************
  Node Flooding Summary
  *********************
  
  No nodes were flooded.
  
  
  ***********************
  Outfall Loading Summary
  ***********************
  
  -----------------------------------------------------------
                         Flow       Avg       Max       Total
                         Freq      Flow      Flow      Volume
  Outfall Node           Pcnt       CMS       CMS    10^6 ltr
  -----------------------------------------------------------
  j30                   99.59     0.140     1.216       3.056
  -----------------------------------------------------------
  System                99.59     0.140     1.216       3.056
  
  
  ********************
  Link Flow Summary
  ********************
  
  -----------------------------------------------------------------------------
                                 Maximum  Time of Max   Maximum    Max/    Max/
                                  |Flow|   Occurrence   |Veloc|    Full    Full
  Link                 Type          CMS  days hr:min     m/sec    Flow   Depth
  -----------------------------------------------------------------------------
  l1                   CONDUIT     0.049     0  01:18      0.90    0.01    0.10
  l2                   CONDUIT     0.159     0  01:18      1.61    0.03    0.14
  l3                   CONDUIT     0.285     0  01:18      2.14    0.06    0.18
  l6                   CONDUIT     0.114     0  01:18      1.50    0.02    0.12
  l7                   CONDUIT     0.204     0  01:18      1.31    0.04    0.20
  l8                   CONDUIT     0.641     0  01:19      2.78    0.12    0.26
  l9                   CONDUIT     0.681     0  01:19      2.38    0.13    0.30
  l10                  CONDUIT     0.060     0  01:18      0.98    0.01    0.10
  l11                  CONDUIT     0.065     0  01:18      1.04    0.01    0.10
  l12                  CONDUIT     0.182     0  01:19      1.84    0.04    0.14
  l13                  CONDUIT     0.053     0  01:18      0.75    0.01    0.11
  l14                  CONDUIT     0.260     0  01:19      2.20    0.05    0.16
  l15                  CONDUIT     0.288     0  01:19      2.25    0.06    0.17
  l16                  CONDUIT     0.312     0  01:19      2.37    0.06    0.17
  l17                  CONDUIT     0.330     0  01:19      1.43    0.06    0.26
  l18                  CONDUIT     1.044     0  01:19      3.05    0.20    0.34
  l19                  CONDUIT     1.047     0  01:20      3.06    0.21    0.34
  l20                  CONDUIT     1.063     0  01:20      3.09    0.21    0.34
  l21                  CONDUIT     1.072     0  01:20      2.96    0.21    0.36
  l22                  CONDUIT     0.006     0  01:18      0.51    0.00    0.04
  l23                  CONDUIT     0.018     0  01:18      0.88    0.00    0.05
  l24                  CONDUIT     0.030     0  01:18      1.07    0.01    0.06
  l25                  CONDUIT     0.045     0  01:18      1.17    0.01    0.08
  l26                  CONDUIT     0.074     0  01:18      1.42    0.01    0.09
  l27                  CONDUIT     0.108     0  01:19      1.65    0.02    0.11
  l28                  CONDUIT     0.142     0  01:19      0.90    0.03    0.24
  l29                  CONDUIT     1.216     0  01:20      3.43    0.24    0.35
  l30                  CONDUIT     0.390     0  01:18      2.10    0.08    0.22
  
  
  ***************************
  Flow Classification Summary
  ***************************
  
  -------------------------------------------------------------------------------------
                      Adjusted    ---------- Fraction of Time in Flow Class ---------- 
                       /Actual         Up    Down  Sub   Sup   Up    Down  Norm  Inlet 
  Conduit               Length    Dry  Dry   Dry   Crit  Crit  Crit  Crit  Ltd   Ctrl  
  -------------------------------------------------------------------------------------
  l1                      1.00   0.00  0.00  0.00  0.93  0.06  0.00  0.00  1.00  0.00
  l2                      1.00   0.00  0.00  0.00  0.32  0.68  0.00  0.00  1.00  0.00
  l3                      1.00   0.00  0.00  0.00  0.04  0.96  0.00  0.00  0.88  0.00
  l6                      1.00   0.00  0.00  0.00  0.22  0.77  0.00  0.00  1.00  0.00
  l7                      1.00   0.00  0.00  0.00  0.76  0.24  0.00  0.00  1.00  0.00
  l8                      1.00   0.00  0.00  0.00  0.01  0.98  0.00  0.00  0.28  0.00
  l9                      1.00   0.00  0.00  0.00  0.01  0.99  0.00  0.00  0.86  0.00
  l10                     1.00   0.00  0.00  0.00  0.86  0.14  0.00  0.00  1.00  0.00
  l11                     1.00   0.00  0.00  0.00  0.77  0.23  0.00  0.00  1.00  0.00
  l12                     1.00   0.00  0.00  0.00  0.08  0.92  0.00  0.00  1.00  0.00
  l13                     1.00   0.00  0.00  0.00  1.00  0.00  0.00  0.00  1.00  0.00
  l14                     1.00   0.00  0.00  0.00  0.01  0.98  0.00  0.00  0.70  0.00
  l15                     1.00   0.00  0.00  0.00  0.01  0.98  0.00  0.00  0.57  0.00
  l16                     1.00   0.00  0.00  0.00  0.02  0.98  0.00  0.00  0.44  0.00
  l17                     1.00   0.00  0.00  0.00  0.87  0.13  0.00  0.00  1.00  0.00
  l18                     1.00   0.00  0.00  0.00  0.01  0.99  0.00  0.00  0.04  0.00
  l19                     1.00   0.00  0.00  0.00  0.02  0.98  0.00  0.00  0.04  0.00
  l20                     1.00   0.00  0.00  0.00  0.02  0.98  0.00  0.00  0.03  0.00
  l21                     1.00   0.00  0.00  0.00  0.02  0.98  0.00  0.00  0.39  0.00
  l22                     1.00   0.00  0.00  0.00  0.97  0.03  0.00  0.00  1.00  0.00
  l23                     1.00   0.00  0.00  0.00  0.72  0.27  0.00  0.00  1.00  0.00
  l24                     1.00   0.00  0.00  0.00  0.63  0.36  0.00  0.00  1.00  0.00
  l25                     1.00   0.00  0.00  0.00  0.63  0.37  0.00  0.00  1.00  0.00
  l26                     1.00   0.00  0.00  0.00  0.53  0.47  0.00  0.00  1.00  0.00
  l27                     1.00   0.00  0.00  0.00  0.40  0.59  0.00  0.00  0.99  0.00
  l28                     1.00   0.00  0.00  0.00  0.99  0.01  0.00  0.00  1.00  0.00
  l29                     1.00   0.00  0.00  0.00  0.01  0.99  0.00  0.00  0.00  0.00
  l30                     1.00   0.00  0.00  0.00  0.03  0.97  0.00  0.00  1.00  0.00
  
  
  *************************
  Conduit Surcharge Summary
  *************************
  
  No conduits were surcharged.
  

  Analysis begun on:  Wed May  6 00:19:09 2020
  Analysis ended on:  Wed May  6 00:19:09 2020
  Total elapsed time: < 1 sec