
  EPA STORM WATER MANAGEMENT MODEL - VERSION 5.1 (Build 5.3.0)
  --------------------------------------------------------------

  
  *********************************************************
  NOTE: The summary statistics displayed in this report are
  based on results found at every computational time step,  
  not just on results from each reporting time step.
  *********************************************************
  
  ****************
  Analysis Options
  ****************
  Flow Units ............... CMS
  Process Models:
    Rainfall/Runoff ........ YES
    RDII ................... NO
    Snowmelt ............... NO
    Groundwater ............ NO
    Flow Routing ........... YES
    Ponding Allowed ........ NO
    Water Quality .......... NO
  Infiltration Method ...... MODIFIED_GREEN_AMPT
  Flow Routing Method ...... DYNWAVE
  Surcharge Method ......... EXTRAN
  Starting Date ............ 08/28/2018 17:59:30
  Ending Date .............. 08/29/2018 00:00:00
  Antecedent Dry Days ...... 10.0
  Report Time Step ......... 00:01:00
  Wet Time Step ............ 00:01:00
  Dry Time Step ............ 01:00:00
  Routing Time Step ........ 30.00 sec
  Variable Time Step ....... NO
  Maximum Trials ........... 8
  Number of Threads ........ 1
  Head Tolerance ........... 0.001500 m
  
  
  **************************        Volume         Depth
  Runoff Quantity Continuity     hectare-m            mm
  **************************     ---------       -------
  Total Precipitation ......         0.687        61.400
  Evaporation Loss .........         0.000         0.000
  Infiltration Loss ........         0.300        26.796
  Surface Runoff ...........         0.371        33.160
  Final Storage ............         0.016         1.463
  Continuity Error (%) .....        -0.032
  
  
  **************************        Volume        Volume
  Flow Routing Continuity        hectare-m      10^6 ltr
  **************************     ---------     ---------
  Dry Weather Inflow .......         0.000         0.000
  Wet Weather Inflow .......         0.371         3.708
  Groundwater Inflow .......         0.000         0.000
  RDII Inflow ..............         0.000         0.000
  External Inflow ..........         0.000         0.000
  External Outflow .........         0.369         3.690
  Flooding Loss ............         0.000         0.000
  Evaporation Loss .........         0.000         0.000
  Exfiltration Loss ........         0.000         0.000
  Initial Stored Volume ....         0.000         0.000
  Final Stored Volume ......         0.002         0.015
  Continuity Error (%) .....         0.095
  
  
  ********************************
  Highest Flow Instability Indexes
  ********************************
  Link l11 (14)
  Link l10 (14)
  Link l21 (13)
  Link l13 (13)
  Link l2 (13)
  
  
  *************************
  Routing Time Step Summary
  *************************
  Minimum Time Step           :    30.00 sec
  Average Time Step           :    30.00 sec
  Maximum Time Step           :    30.00 sec
  Percent in Steady State     :     0.00
  Average Iterations per Step :     2.24
  Percent Not Converging      :     0.00
  
  
  ***************************
  Subcatchment Runoff Summary
  ***************************
  
  ------------------------------------------------------------------------------------------------------------------------------
                            Total      Total      Total      Total     Imperv       Perv      Total       Total     Peak  Runoff
                           Precip      Runon       Evap      Infil     Runoff     Runoff     Runoff      Runoff   Runoff   Coeff
  Subcatchment                 mm         mm         mm         mm         mm         mm         mm    10^6 ltr      CMS
  ------------------------------------------------------------------------------------------------------------------------------
  s31                       61.40       0.00       0.00      49.18      11.95       0.00      11.95        0.01     0.01   0.195
  s32                       61.40       0.00       0.00      49.18      11.93       0.00      11.93        0.03     0.01   0.194
  s33                       61.40       0.00       0.00      49.18      11.93       0.00      11.93        0.03     0.01   0.194
  s34                       61.40       0.00       0.00      49.18      11.91       0.00      11.91        0.04     0.01   0.194
  s35                       61.40       0.00       0.00      12.29      47.11       0.00      47.11        0.15     0.05   0.767
  s36                       61.40       0.00       0.00      12.29      47.29       0.00      47.29        0.09     0.03   0.770
  s37                       61.40       0.00       0.00      12.29      47.18       0.00      47.18        0.12     0.04   0.768
  s38                       61.40       0.00       0.00      12.29      46.85       0.00      46.85        0.24     0.08   0.763
  s39                       61.40       0.00       0.00      12.29      46.56       0.00      46.56        0.37     0.12   0.758
  s40                       61.40       0.00       0.00      12.29      46.77       0.00      46.77        0.27     0.09   0.762
  s41                       61.40       0.00       0.00      49.18      11.88       0.00      11.88        0.08     0.03   0.193
  s42                       61.40       0.00       0.00      49.18      11.87       0.00      11.87        0.09     0.03   0.193
  s43                       61.40       0.00       0.00      49.18      11.87       0.00      11.87        0.09     0.03   0.193
  s46                       61.40       0.00       0.00      12.29      47.06       0.00      47.06        0.16     0.05   0.766
  s47                       61.40       0.00       0.00      12.29      46.99       0.00      46.99        0.18     0.06   0.765
  s48                       61.40       0.00       0.00      12.29      47.02       0.00      47.02        0.17     0.06   0.766
  s49                       61.40       0.00       0.00      12.29      46.96       0.00      46.96        0.20     0.06   0.765
  s50                       61.40       0.00       0.00      12.29      47.37       0.00      47.37        0.08     0.03   0.772
  s51                       61.40       0.00       0.00      12.29      47.33       0.00      47.33        0.09     0.03   0.771
  s52                       61.40       0.00       0.00      12.29      46.63       0.00      46.63        0.34     0.11   0.759
  s53                       61.40       0.00       0.00      12.29      46.76       0.00      46.76        0.28     0.09   0.762
  s54                       61.40       0.00       0.00      12.29      47.42       0.00      47.42        0.07     0.02   0.772
  s55                       61.40       0.00       0.00      12.29      47.47       0.00      47.47        0.06     0.02   0.773
  s56                       61.40       0.00       0.00      12.29      47.18       0.00      47.18        0.12     0.04   0.768
  s57                       61.40       0.00       0.00      12.29      47.25       0.00      47.25        0.10     0.04   0.770
  s58                       61.40       0.00       0.00      12.29      47.25       0.00      47.25        0.10     0.04   0.770
  s59                       61.40       0.00       0.00      49.18      11.94       0.00      11.94        0.02     0.01   0.194
  s60                       61.40       0.00       0.00      49.18      11.95       0.00      11.95        0.02     0.01   0.195
  s61                       61.40       0.00       0.00      49.18      11.95       0.00      11.95        0.02     0.01   0.195
  s62                       61.40       0.00       0.00      49.18      11.92       0.00      11.92        0.03     0.01   0.194
  s63                       61.40       0.00       0.00      49.18      11.90       0.00      11.90        0.05     0.02   0.194
  s64                       61.40       0.00       0.00      49.18      11.93       0.00      11.93        0.02     0.01   0.194
  
  
  ******************
  Node Depth Summary
  ******************
  
  ---------------------------------------------------------------------------------
                                 Average  Maximum  Maximum  Time of Max    Reported
                                   Depth    Depth      HGL   Occurrence   Max Depth
  Node                 Type       Meters   Meters   Meters  days hr:min      Meters
  ---------------------------------------------------------------------------------
  j1                   JUNCTION     0.02     0.08    37.38     0  03:40        0.08
  j2                   JUNCTION     0.04     0.14    36.31     0  03:41        0.14
  j3                   JUNCTION     0.06     0.20    35.13     0  03:45        0.20
  j4                   JUNCTION     0.07     0.22    34.38     0  03:45        0.22
  j6                   JUNCTION     0.09     0.31    33.20     0  03:45        0.31
  j7                   JUNCTION     0.09     0.31    32.56     0  03:45        0.31
  j8                   JUNCTION     0.04     0.13    35.35     0  03:45        0.13
  j9                   JUNCTION     0.05     0.16    34.14     0  03:45        0.16
  j10                  JUNCTION     0.03     0.09    37.54     0  03:45        0.09
  j11                  JUNCTION     0.05     0.15    36.65     0  03:45        0.15
  j12                  JUNCTION     0.03     0.09    37.48     0  03:45        0.09
  j13                  JUNCTION     0.03     0.09    35.94     0  03:41        0.09
  j14                  JUNCTION     0.05     0.19    35.12     0  03:45        0.19
  j15                  JUNCTION     0.06     0.20    34.25     0  03:41        0.20
  j16                  JUNCTION     0.06     0.21    33.47     0  03:41        0.21
  j17                  JUNCTION     0.06     0.21    32.77     0  03:42        0.21
  j18                  JUNCTION     0.11     0.41    31.88     0  03:46        0.41
  j19                  JUNCTION     0.11     0.41    31.34     0  03:46        0.41
  j20                  JUNCTION     0.11     0.41    30.74     0  03:46        0.41
  j21                  JUNCTION     0.11     0.41    30.17     0  03:45        0.41
  j22                  JUNCTION     0.12     0.44    29.54     0  03:42        0.44
  j23                  JUNCTION     0.01     0.03    35.11     0  03:26        0.03
  j24                  JUNCTION     0.01     0.05    34.52     0  03:26        0.05
  j25                  JUNCTION     0.02     0.06    33.93     0  03:26        0.06
  j26                  JUNCTION     0.02     0.08    33.26     0  03:27        0.08
  j27                  JUNCTION     0.03     0.10    32.46     0  03:27        0.10
  j28                  JUNCTION     0.03     0.12    31.27     0  03:27        0.12
  j29                  JUNCTION     0.04     0.13    30.21     0  03:37        0.13
  j30                  OUTFALL      0.11     0.40    28.90     0  03:43        0.40
  
  
  *******************
  Node Inflow Summary
  *******************
  
  -------------------------------------------------------------------------------------------------
                                  Maximum  Maximum                  Lateral       Total        Flow
                                  Lateral    Total  Time of Max      Inflow      Inflow     Balance
                                   Inflow   Inflow   Occurrence      Volume      Volume       Error
  Node                 Type           CMS      CMS  days hr:min    10^6 ltr    10^6 ltr     Percent
  -------------------------------------------------------------------------------------------------
  j1                   JUNCTION     0.048    0.048     0  03:41       0.146       0.146       0.116
  j2                   JUNCTION     0.109    0.157     0  03:45       0.333       0.479       0.105
  j3                   JUNCTION     0.128    0.284     0  03:45       0.394       0.872       0.079
  j4                   JUNCTION     0.106    0.390     0  03:45       0.336        1.21       0.064
  j6                   JUNCTION     0.048    0.642     0  03:45       0.142           2       0.101
  j7                   JUNCTION     0.041    0.681     0  03:45       0.119        2.11       0.009
  j8                   JUNCTION     0.117    0.117     0  03:45       0.372       0.372       0.083
  j9                   JUNCTION     0.088    0.205     0  03:45       0.276       0.648       0.100
  j10                  JUNCTION     0.060    0.060     0  03:45       0.183       0.183       0.102
  j11                  JUNCTION     0.057    0.181     0  03:45       0.174       0.554       0.139
  j12                  JUNCTION     0.064    0.064     0  03:45       0.197       0.197       0.101
  j13                  JUNCTION     0.053    0.053     0  03:41        0.16        0.16       0.101
  j14                  JUNCTION     0.026    0.259     0  03:41      0.0758       0.788       0.143
  j15                  JUNCTION     0.029    0.288     0  03:41      0.0851       0.873       0.073
  j16                  JUNCTION     0.023    0.310     0  03:41      0.0664       0.938       0.056
  j17                  JUNCTION     0.020    0.330     0  03:42      0.0569       0.995       0.050
  j18                  JUNCTION     0.035    1.042     0  03:45       0.104        3.21       0.098
  j19                  JUNCTION     0.007    1.047     0  03:46      0.0155        3.22       0.028
  j20                  JUNCTION     0.012    1.059     0  03:46      0.0322        3.25       0.029
  j21                  JUNCTION     0.010    1.065     0  03:46      0.0239        3.28       0.008
  j22                  JUNCTION     0.020    1.203     0  03:42      0.0535        3.69       0.085
  j23                  JUNCTION     0.006    0.006     0  03:26      0.0143      0.0143       0.194
  j24                  JUNCTION     0.011    0.017     0  03:26      0.0286      0.0429       0.167
  j25                  JUNCTION     0.011    0.028     0  03:26      0.0274      0.0703       0.153
  j26                  JUNCTION     0.014    0.043     0  03:27      0.0381       0.108       0.132
  j27                  JUNCTION     0.027    0.069     0  03:27       0.076       0.184       0.117
  j28                  JUNCTION     0.032    0.099     0  03:27      0.0902       0.274       0.120
  j29                  JUNCTION     0.032    0.129     0  03:37       0.089       0.363       0.047
  j30                  OUTFALL      0.000    1.204     0  03:43           0        3.69       0.000
  
  
  **********************
  Node Surcharge Summary
  **********************
  
  No nodes were surcharged.
  
  
  *********************
  Node Flooding Summary
  *********************
  
  No nodes were flooded.
  
  
  ***********************
  Outfall Loading Summary
  ***********************
  
  -----------------------------------------------------------
                         Flow       Avg       Max       Total
                         Freq      Flow      Flow      Volume
  Outfall Node           Pcnt       CMS       CMS    10^6 ltr
  -----------------------------------------------------------
  j30                   96.26     0.177     1.204       3.690
  -----------------------------------------------------------
  System                96.26     0.177     1.204       3.690
  
  
  ********************
  Link Flow Summary
  ********************
  
  -----------------------------------------------------------------------------
                                 Maximum  Time of Max   Maximum    Max/    Max/
                                  |Flow|   Occurrence   |Veloc|    Full    Full
  Link                 Type          CMS  days hr:min     m/sec    Flow   Depth
  -----------------------------------------------------------------------------
  l1                   CONDUIT     0.048     0  03:41      0.89    0.01    0.09
  l2                   CONDUIT     0.157     0  03:41      1.60    0.03    0.14
  l3                   CONDUIT     0.284     0  03:45      2.13    0.06    0.18
  l6                   CONDUIT     0.117     0  03:45      1.51    0.02    0.12
  l7                   CONDUIT     0.205     0  03:45      1.31    0.04    0.20
  l8                   CONDUIT     0.642     0  03:45      2.79    0.12    0.26
  l9                   CONDUIT     0.681     0  03:46      2.38    0.13    0.30
  l10                  CONDUIT     0.060     0  03:45      0.98    0.01    0.10
  l11                  CONDUIT     0.064     0  03:45      1.03    0.01    0.10
  l12                  CONDUIT     0.181     0  03:45      1.84    0.04    0.14
  l13                  CONDUIT     0.053     0  03:41      0.74    0.01    0.11
  l14                  CONDUIT     0.259     0  03:41      2.20    0.05    0.16
  l15                  CONDUIT     0.288     0  03:41      2.25    0.06    0.17
  l16                  CONDUIT     0.311     0  03:42      2.36    0.06    0.17
  l17                  CONDUIT     0.329     0  03:42      1.44    0.06    0.26
  l18                  CONDUIT     1.043     0  03:46      3.06    0.20    0.34
  l19                  CONDUIT     1.049     0  03:46      3.06    0.21    0.34
  l20                  CONDUIT     1.057     0  03:46      3.10    0.21    0.34
  l21                  CONDUIT     1.066     0  03:46      2.97    0.21    0.35
  l22                  CONDUIT     0.006     0  03:26      0.50    0.00    0.03
  l23                  CONDUIT     0.017     0  03:26      0.87    0.00    0.05
  l24                  CONDUIT     0.028     0  03:27      1.05    0.01    0.06
  l25                  CONDUIT     0.043     0  03:27      1.15    0.01    0.07
  l26                  CONDUIT     0.069     0  03:27      1.39    0.01    0.09
  l27                  CONDUIT     0.098     0  03:27      1.61    0.02    0.10
  l28                  CONDUIT     0.129     0  03:37      0.96    0.03    0.24
  l29                  CONDUIT     1.204     0  03:43      3.43    0.23    0.35
  l30                  CONDUIT     0.390     0  03:45      2.09    0.08    0.22
  
  
  ***************************
  Flow Classification Summary
  ***************************
  
  -------------------------------------------------------------------------------------
                      Adjusted    ---------- Fraction of Time in Flow Class ---------- 
                       /Actual         Up    Down  Sub   Sup   Up    Down  Norm  Inlet 
  Conduit               Length    Dry  Dry   Dry   Crit  Crit  Crit  Crit  Ltd   Ctrl  
  -------------------------------------------------------------------------------------
  l1                      1.00   0.01  0.00  0.00  0.91  0.08  0.00  0.00  0.99  0.00
  l2                      1.00   0.01  0.00  0.00  0.09  0.89  0.00  0.00  0.99  0.00
  l3                      1.00   0.01  0.00  0.00  0.06  0.93  0.00  0.00  0.83  0.00
  l6                      1.00   0.01  0.00  0.00  0.09  0.90  0.00  0.00  0.98  0.00
  l7                      1.00   0.01  0.00  0.00  0.73  0.25  0.00  0.00  0.99  0.00
  l8                      1.00   0.01  0.00  0.00  0.05  0.94  0.00  0.00  0.17  0.00
  l9                      1.00   0.01  0.00  0.00  0.06  0.93  0.00  0.00  0.81  0.00
  l10                     1.00   0.01  0.00  0.00  0.83  0.15  0.00  0.00  0.99  0.00
  l11                     1.00   0.01  0.00  0.00  0.77  0.22  0.00  0.00  0.99  0.00
  l12                     1.00   0.01  0.00  0.00  0.07  0.92  0.00  0.00  0.97  0.00
  l13                     1.00   0.01  0.00  0.00  0.99  0.00  0.00  0.00  0.98  0.00
  l14                     1.00   0.01  0.00  0.00  0.05  0.93  0.00  0.00  0.64  0.00
  l15                     1.00   0.01  0.00  0.00  0.06  0.93  0.00  0.00  0.41  0.00
  l16                     1.00   0.01  0.00  0.00  0.06  0.93  0.00  0.00  0.20  0.00
  l17                     1.00   0.01  0.00  0.00  0.93  0.05  0.00  0.00  0.98  0.00
  l18                     1.00   0.01  0.00  0.00  0.05  0.94  0.00  0.00  0.10  0.00
  l19                     1.00   0.01  0.00  0.00  0.05  0.93  0.00  0.00  0.11  0.00
  l20                     1.00   0.01  0.00  0.00  0.06  0.93  0.00  0.00  0.09  0.00
  l21                     1.00   0.01  0.00  0.00  0.07  0.91  0.00  0.00  0.24  0.00
  l22                     1.00   0.01  0.00  0.00  0.98  0.00  0.00  0.00  0.98  0.00
  l23                     1.00   0.01  0.00  0.00  0.52  0.47  0.00  0.00  0.98  0.00
  l24                     1.00   0.01  0.00  0.00  0.28  0.70  0.00  0.00  0.98  0.00
  l25                     1.00   0.01  0.00  0.00  0.27  0.72  0.00  0.00  0.99  0.00
  l26                     1.00   0.01  0.00  0.00  0.16  0.83  0.00  0.00  0.99  0.00
  l27                     1.00   0.01  0.00  0.00  0.08  0.90  0.00  0.00  0.98  0.00
  l28                     1.00   0.01  0.00  0.00  0.99  0.00  0.00  0.00  0.97  0.00
  l29                     1.00   0.01  0.00  0.00  0.01  0.97  0.00  0.00  0.00  0.00
  l30                     1.00   0.01  0.00  0.00  0.06  0.92  0.00  0.00  0.99  0.00
  
  
  *************************
  Conduit Surcharge Summary
  *************************
  
  No conduits were surcharged.
  

  Analysis begun on:  Wed May  6 00:29:00 2020
  Analysis ended on:  Wed May  6 00:29:00 2020
  Total elapsed time: < 1 sec